* NGSPICE file created from tiny_user_project.ext - technology: sky130A

* Black-box entry subcircuit for sky130_fd_sc_hd__fill_2 abstract view
.subckt sky130_fd_sc_hd__fill_2 VGND VNB VPB VPWR
.ends

* Black-box entry subcircuit for sky130_fd_sc_hd__decap_4 abstract view
.subckt sky130_fd_sc_hd__decap_4 VGND VNB VPB VPWR
.ends

* Black-box entry subcircuit for sky130_fd_sc_hd__decap_6 abstract view
.subckt sky130_fd_sc_hd__decap_6 VGND VNB VPB VPWR
.ends

* Black-box entry subcircuit for sky130_fd_sc_hd__inv_2 abstract view
.subckt sky130_fd_sc_hd__inv_2 A VGND VNB VPB VPWR Y
.ends

* Black-box entry subcircuit for sky130_ef_sc_hd__decap_12 abstract view
.subckt sky130_ef_sc_hd__decap_12 VGND VNB VPB VPWR
.ends

* Black-box entry subcircuit for sky130_fd_sc_hd__a221oi_4 abstract view
.subckt sky130_fd_sc_hd__a221oi_4 A1 A2 B1 B2 C1 VGND VNB VPB VPWR Y
.ends

* Black-box entry subcircuit for sky130_fd_sc_hd__decap_3 abstract view
.subckt sky130_fd_sc_hd__decap_3 VGND VNB VPB VPWR
.ends

* Black-box entry subcircuit for sky130_fd_sc_hd__clkbuf_1 abstract view
.subckt sky130_fd_sc_hd__clkbuf_1 A VGND VNB VPB VPWR X
.ends

* Black-box entry subcircuit for sky130_fd_sc_hd__dfxtp_1 abstract view
.subckt sky130_fd_sc_hd__dfxtp_1 CLK D VGND VNB VPB VPWR Q
.ends

* Black-box entry subcircuit for sky130_fd_sc_hd__diode_2 abstract view
.subckt sky130_fd_sc_hd__diode_2 DIODE VGND VNB VPB VPWR
.ends

* Black-box entry subcircuit for sky130_fd_sc_hd__decap_8 abstract view
.subckt sky130_fd_sc_hd__decap_8 VGND VNB VPB VPWR
.ends

* Black-box entry subcircuit for sky130_fd_sc_hd__tapvpwrvgnd_1 abstract view
.subckt sky130_fd_sc_hd__tapvpwrvgnd_1 VGND VPWR
.ends

* Black-box entry subcircuit for sky130_fd_sc_hd__a21o_1 abstract view
.subckt sky130_fd_sc_hd__a21o_1 A1 A2 B1 VGND VNB VPB VPWR X
.ends

* Black-box entry subcircuit for sky130_fd_sc_hd__and3_1 abstract view
.subckt sky130_fd_sc_hd__and3_1 A B C VGND VNB VPB VPWR X
.ends

* Black-box entry subcircuit for sky130_fd_sc_hd__fill_1 abstract view
.subckt sky130_fd_sc_hd__fill_1 VGND VNB VPB VPWR
.ends

* Black-box entry subcircuit for sky130_fd_sc_hd__xnor2_1 abstract view
.subckt sky130_fd_sc_hd__xnor2_1 A B VGND VNB VPB VPWR Y
.ends

* Black-box entry subcircuit for sky130_fd_sc_hd__a22o_1 abstract view
.subckt sky130_fd_sc_hd__a22o_1 A1 A2 B1 B2 VGND VNB VPB VPWR X
.ends

* Black-box entry subcircuit for sky130_fd_sc_hd__nand2_1 abstract view
.subckt sky130_fd_sc_hd__nand2_1 A B VGND VNB VPB VPWR Y
.ends

* Black-box entry subcircuit for sky130_fd_sc_hd__o22a_1 abstract view
.subckt sky130_fd_sc_hd__o22a_1 A1 A2 B1 B2 VGND VNB VPB VPWR X
.ends

* Black-box entry subcircuit for sky130_fd_sc_hd__or2_1 abstract view
.subckt sky130_fd_sc_hd__or2_1 A B VGND VNB VPB VPWR X
.ends

* Black-box entry subcircuit for sky130_fd_sc_hd__and2b_1 abstract view
.subckt sky130_fd_sc_hd__and2b_1 A_N B VGND VNB VPB VPWR X
.ends

* Black-box entry subcircuit for sky130_fd_sc_hd__a221o_1 abstract view
.subckt sky130_fd_sc_hd__a221o_1 A1 A2 B1 B2 C1 VGND VNB VPB VPWR X
.ends

* Black-box entry subcircuit for sky130_fd_sc_hd__and3b_1 abstract view
.subckt sky130_fd_sc_hd__and3b_1 A_N B C VGND VNB VPB VPWR X
.ends

* Black-box entry subcircuit for sky130_fd_sc_hd__buf_2 abstract view
.subckt sky130_fd_sc_hd__buf_2 A VGND VNB VPB VPWR X
.ends

* Black-box entry subcircuit for sky130_fd_sc_hd__clkbuf_2 abstract view
.subckt sky130_fd_sc_hd__clkbuf_2 A VGND VNB VPB VPWR X
.ends

* Black-box entry subcircuit for sky130_fd_sc_hd__conb_1 abstract view
.subckt sky130_fd_sc_hd__conb_1 VGND VNB VPB VPWR HI LO
.ends

* Black-box entry subcircuit for sky130_fd_sc_hd__or2b_1 abstract view
.subckt sky130_fd_sc_hd__or2b_1 A B_N VGND VNB VPB VPWR X
.ends

* Black-box entry subcircuit for sky130_fd_sc_hd__and2_1 abstract view
.subckt sky130_fd_sc_hd__and2_1 A B VGND VNB VPB VPWR X
.ends

* Black-box entry subcircuit for sky130_fd_sc_hd__mux4_1 abstract view
.subckt sky130_fd_sc_hd__mux4_1 A0 A1 A2 A3 S0 S1 VGND VNB VPB VPWR X
.ends

.subckt tiny_user_project io_in[0] io_in[10] io_in[11] io_in[12] io_in[13] io_in[14]
+ io_in[15] io_in[16] io_in[17] io_in[18] io_in[19] io_in[1] io_in[20] io_in[21] io_in[22]
+ io_in[23] io_in[24] io_in[25] io_in[26] io_in[27] io_in[28] io_in[29] io_in[2] io_in[30]
+ io_in[31] io_in[32] io_in[33] io_in[34] io_in[35] io_in[36] io_in[37] io_in[3] io_in[4]
+ io_in[5] io_in[6] io_in[7] io_in[8] io_in[9] io_oeb[0] io_oeb[10] io_oeb[11] io_oeb[12]
+ io_oeb[13] io_oeb[14] io_oeb[15] io_oeb[16] io_oeb[17] io_oeb[18] io_oeb[19] io_oeb[1]
+ io_oeb[20] io_oeb[21] io_oeb[22] io_oeb[23] io_oeb[24] io_oeb[25] io_oeb[26] io_oeb[27]
+ io_oeb[28] io_oeb[29] io_oeb[2] io_oeb[30] io_oeb[31] io_oeb[32] io_oeb[33] io_oeb[34]
+ io_oeb[35] io_oeb[36] io_oeb[37] io_oeb[3] io_oeb[4] io_oeb[5] io_oeb[6] io_oeb[7]
+ io_oeb[8] io_oeb[9] io_out[0] io_out[10] io_out[11] io_out[12] io_out[13] io_out[14]
+ io_out[15] io_out[16] io_out[17] io_out[18] io_out[19] io_out[1] io_out[20] io_out[21]
+ io_out[22] io_out[23] io_out[24] io_out[25] io_out[26] io_out[27] io_out[28] io_out[29]
+ io_out[2] io_out[30] io_out[31] io_out[32] io_out[33] io_out[34] io_out[35] io_out[36]
+ io_out[37] io_out[3] io_out[4] io_out[5] io_out[6] io_out[7] io_out[8] io_out[9]
+ vccd1 vssd1
XFILLER_22_188 vssd1 vssd1 vccd1 vccd1 sky130_fd_sc_hd__fill_2
XFILLER_22_155 vssd1 vssd1 vccd1 vccd1 sky130_fd_sc_hd__decap_4
XFILLER_22_133 vssd1 vssd1 vccd1 vccd1 sky130_fd_sc_hd__decap_6
XFILLER_26_85 vssd1 vssd1 vccd1 vccd1 sky130_fd_sc_hd__fill_2
XFILLER_13_188 vssd1 vssd1 vccd1 vccd1 sky130_fd_sc_hd__fill_2
XFILLER_13_166 vssd1 vssd1 vccd1 vccd1 sky130_fd_sc_hd__fill_2
X_294_ net18 vssd1 vssd1 vccd1 vccd1 _053_ sky130_fd_sc_hd__inv_2
XFILLER_9_137 vssd1 vssd1 vccd1 vccd1 sky130_ef_sc_hd__decap_12
XFILLER_12_65 vssd1 vssd1 vccd1 vccd1 sky130_fd_sc_hd__decap_4
XFILLER_12_21 vssd1 vssd1 vccd1 vccd1 sky130_fd_sc_hd__decap_6
X_277_ mod.clock_counter_a\[5\] _147_ _149_ _037_ mod.clock_counter_a\[6\] vssd1 vssd1
+ vccd1 vccd1 _038_ sky130_fd_sc_hd__a221oi_4
XFILLER_23_53 vssd1 vssd1 vccd1 vccd1 sky130_fd_sc_hd__decap_3
X_200_ _101_ vssd1 vssd1 vccd1 vccd1 _013_ sky130_fd_sc_hd__clkbuf_1
X_329_ net31 _022_ vssd1 vssd1 vccd1 vccd1 mod.clock_counter_b\[4\] sky130_fd_sc_hd__dfxtp_1
XFILLER_2_165 vssd1 vssd1 vccd1 vccd1 sky130_ef_sc_hd__decap_12
XFILLER_2_121 vssd1 vssd1 vccd1 vccd1 sky130_ef_sc_hd__decap_12
XFILLER_0_57 vssd1 vssd1 vccd1 vccd1 sky130_ef_sc_hd__decap_12
XFILLER_18_75 vssd1 vssd1 vccd1 vccd1 sky130_fd_sc_hd__decap_4
XFILLER_20_54 vssd1 vssd1 vccd1 vccd1 sky130_fd_sc_hd__decap_4
XANTENNA_input18_A io_in[27] vssd1 vssd1 vccd1 vccd1 sky130_fd_sc_hd__diode_2
XFILLER_13_3 vssd1 vssd1 vccd1 vccd1 sky130_fd_sc_hd__fill_2
XFILLER_6_34 vssd1 vssd1 vccd1 vccd1 sky130_fd_sc_hd__decap_4
XFILLER_25_131 vssd1 vssd1 vccd1 vccd1 sky130_fd_sc_hd__decap_8
XFILLER_17_109 vssd1 vssd1 vccd1 vccd1 sky130_fd_sc_hd__decap_3
XFILLER_16_153 vssd1 vssd1 vccd1 vccd1 sky130_fd_sc_hd__decap_4
XTAP_145 vssd1 vccd1 sky130_fd_sc_hd__tapvpwrvgnd_1
XTAP_134 vssd1 vccd1 sky130_fd_sc_hd__tapvpwrvgnd_1
XTAP_123 vssd1 vccd1 sky130_fd_sc_hd__tapvpwrvgnd_1
XTAP_112 vssd1 vccd1 sky130_fd_sc_hd__tapvpwrvgnd_1
XTAP_101 vssd1 vccd1 sky130_fd_sc_hd__tapvpwrvgnd_1
XFILLER_7_8 vssd1 vssd1 vccd1 vccd1 sky130_fd_sc_hd__decap_4
X_293_ net19 vssd1 vssd1 vccd1 vccd1 _052_ sky130_fd_sc_hd__inv_2
XFILLER_3_57 vssd1 vssd1 vccd1 vccd1 sky130_ef_sc_hd__decap_12
XFILLER_9_149 vssd1 vssd1 vccd1 vccd1 sky130_ef_sc_hd__decap_12
XFILLER_12_44 vssd1 vssd1 vccd1 vccd1 sky130_fd_sc_hd__decap_4
X_276_ _033_ _035_ _036_ vssd1 vssd1 vccd1 vccd1 _037_ sky130_fd_sc_hd__a21o_1
X_414_ mod.clock_syn vssd1 vssd1 vccd1 vccd1 net28 sky130_fd_sc_hd__clkbuf_1
XFILLER_23_21 vssd1 vssd1 vccd1 vccd1 sky130_fd_sc_hd__decap_4
X_328_ net31 _021_ vssd1 vssd1 vccd1 vccd1 mod.clock_counter_b\[3\] sky130_fd_sc_hd__dfxtp_1
XFILLER_23_87 vssd1 vssd1 vccd1 vccd1 sky130_fd_sc_hd__decap_6
XFILLER_23_76 vssd1 vssd1 vccd1 vccd1 sky130_fd_sc_hd__decap_4
X_259_ _038_ _142_ _143_ vssd1 vssd1 vccd1 vccd1 _144_ sky130_fd_sc_hd__and3_1
XFILLER_2_188 vssd1 vssd1 vccd1 vccd1 sky130_fd_sc_hd__fill_2
XFILLER_2_177 vssd1 vssd1 vccd1 vccd1 sky130_fd_sc_hd__decap_8
XFILLER_2_133 vssd1 vssd1 vccd1 vccd1 sky130_fd_sc_hd__decap_6
XFILLER_0_69 vssd1 vssd1 vccd1 vccd1 sky130_ef_sc_hd__decap_12
XFILLER_9_45 vssd1 vssd1 vccd1 vccd1 sky130_fd_sc_hd__decap_4
XFILLER_9_67 vssd1 vssd1 vccd1 vccd1 sky130_ef_sc_hd__decap_12
XFILLER_18_98 vssd1 vssd1 vccd1 vccd1 sky130_fd_sc_hd__decap_4
XFILLER_18_54 vssd1 vssd1 vccd1 vccd1 sky130_fd_sc_hd__decap_4
XFILLER_18_21 vssd1 vssd1 vccd1 vccd1 sky130_fd_sc_hd__decap_6
XFILLER_20_22 vssd1 vssd1 vccd1 vccd1 sky130_fd_sc_hd__decap_6
XFILLER_25_121 vssd1 vssd1 vccd1 vccd1 sky130_fd_sc_hd__decap_4
XFILLER_25_110 vssd1 vssd1 vccd1 vccd1 sky130_fd_sc_hd__fill_2
XFILLER_15_99 vssd1 vssd1 vccd1 vccd1 sky130_fd_sc_hd__decap_4
XTAP_135 vssd1 vccd1 sky130_fd_sc_hd__tapvpwrvgnd_1
XFILLER_22_146 vssd1 vssd1 vccd1 vccd1 sky130_fd_sc_hd__decap_4
XTAP_124 vssd1 vccd1 sky130_fd_sc_hd__tapvpwrvgnd_1
XTAP_113 vssd1 vccd1 sky130_fd_sc_hd__tapvpwrvgnd_1
XTAP_102 vssd1 vccd1 sky130_fd_sc_hd__tapvpwrvgnd_1
XFILLER_26_54 vssd1 vssd1 vccd1 vccd1 sky130_fd_sc_hd__fill_1
XFILLER_26_21 vssd1 vssd1 vccd1 vccd1 sky130_fd_sc_hd__decap_6
X_292_ mod.div_clock\[1\] _051_ vssd1 vssd1 vccd1 vccd1 _001_ sky130_fd_sc_hd__xnor2_1
XFILLER_13_157 vssd1 vssd1 vccd1 vccd1 sky130_fd_sc_hd__fill_1
XFILLER_13_113 vssd1 vssd1 vccd1 vccd1 sky130_ef_sc_hd__decap_12
XFILLER_3_69 vssd1 vssd1 vccd1 vccd1 sky130_ef_sc_hd__decap_12
XFILLER_12_89 vssd1 vssd1 vccd1 vccd1 sky130_ef_sc_hd__decap_12
XFILLER_6_109 vssd1 vssd1 vccd1 vccd1 sky130_ef_sc_hd__decap_12
X_275_ mod.clock_counter_a\[4\] _148_ _034_ mod.clock_counter_a\[3\] vssd1 vssd1 vccd1
+ vccd1 _036_ sky130_fd_sc_hd__a22o_1
XFILLER_23_44 vssd1 vssd1 vccd1 vccd1 sky130_fd_sc_hd__decap_4
XFILLER_23_33 vssd1 vssd1 vccd1 vccd1 sky130_fd_sc_hd__decap_4
XFILLER_3_3 vssd1 vssd1 vccd1 vccd1 sky130_fd_sc_hd__fill_2
XFILLER_0_15 vssd1 vssd1 vccd1 vccd1 sky130_fd_sc_hd__decap_4
XFILLER_9_24 vssd1 vssd1 vccd1 vccd1 sky130_fd_sc_hd__decap_4
X_327_ net31 _020_ vssd1 vssd1 vccd1 vccd1 mod.clock_counter_b\[2\] sky130_fd_sc_hd__dfxtp_1
X_258_ mod.clock_counter_a\[5\] _139_ vssd1 vssd1 vccd1 vccd1 _143_ sky130_fd_sc_hd__nand2_1
XFILLER_9_57 vssd1 vssd1 vccd1 vccd1 sky130_fd_sc_hd__fill_2
XFILLER_9_79 vssd1 vssd1 vccd1 vccd1 sky130_ef_sc_hd__decap_12
X_189_ mod.clock_counter_d\[5\] _077_ _088_ vssd1 vssd1 vccd1 vccd1 _094_ sky130_fd_sc_hd__and3_1
XFILLER_20_45 vssd1 vssd1 vccd1 vccd1 sky130_fd_sc_hd__decap_4
XFILLER_20_12 vssd1 vssd1 vccd1 vccd1 sky130_fd_sc_hd__decap_4
XFILLER_19_152 vssd1 vssd1 vccd1 vccd1 sky130_fd_sc_hd__decap_4
XFILLER_25_188 vssd1 vssd1 vccd1 vccd1 sky130_fd_sc_hd__fill_2
XFILLER_25_166 vssd1 vssd1 vccd1 vccd1 sky130_fd_sc_hd__fill_2
XFILLER_16_111 vssd1 vssd1 vccd1 vccd1 sky130_fd_sc_hd__decap_4
XFILLER_15_78 vssd1 vssd1 vccd1 vccd1 sky130_fd_sc_hd__decap_4
XANTENNA_input23_A io_in[32] vssd1 vssd1 vccd1 vccd1 sky130_fd_sc_hd__diode_2
XTAP_136 vssd1 vccd1 sky130_fd_sc_hd__tapvpwrvgnd_1
XTAP_125 vssd1 vccd1 sky130_fd_sc_hd__tapvpwrvgnd_1
XTAP_114 vssd1 vccd1 sky130_fd_sc_hd__tapvpwrvgnd_1
XFILLER_16_188 vssd1 vssd1 vccd1 vccd1 sky130_fd_sc_hd__fill_2
XTAP_103 vssd1 vccd1 sky130_fd_sc_hd__tapvpwrvgnd_1
X_291_ mod.clock_counter_b\[5\] _039_ _041_ _050_ mod.clock_counter_b\[6\] vssd1 vssd1
+ vccd1 vccd1 _051_ sky130_fd_sc_hd__a221oi_4
XFILLER_13_169 vssd1 vssd1 vccd1 vccd1 sky130_fd_sc_hd__fill_2
XFILLER_13_125 vssd1 vssd1 vccd1 vccd1 sky130_ef_sc_hd__decap_12
XFILLER_12_79 vssd1 vssd1 vccd1 vccd1 sky130_fd_sc_hd__decap_4
XFILLER_10_139 vssd1 vssd1 vccd1 vccd1 sky130_fd_sc_hd__fill_1
X_274_ mod.clock_counter_a\[3\] _034_ _150_ mod.clock_counter_a\[2\] vssd1 vssd1 vccd1
+ vccd1 _035_ sky130_fd_sc_hd__o22a_1
XFILLER_23_67 vssd1 vssd1 vccd1 vccd1 sky130_fd_sc_hd__decap_4
X_326_ net30 _019_ vssd1 vssd1 vccd1 vccd1 mod.clock_counter_b\[1\] sky130_fd_sc_hd__dfxtp_1
X_257_ mod.clock_counter_a\[5\] _139_ vssd1 vssd1 vccd1 vccd1 _142_ sky130_fd_sc_hd__or2_1
X_188_ _093_ vssd1 vssd1 vccd1 vccd1 _009_ sky130_fd_sc_hd__clkbuf_1
XFILLER_18_45 vssd1 vssd1 vccd1 vccd1 sky130_fd_sc_hd__decap_4
X_309_ net30 _002_ vssd1 vssd1 vccd1 vccd1 mod.div_clock\[2\] sky130_fd_sc_hd__dfxtp_1
XFILLER_1_81 vssd1 vssd1 vccd1 vccd1 sky130_ef_sc_hd__decap_12
XFILLER_6_15 vssd1 vssd1 vccd1 vccd1 sky130_fd_sc_hd__decap_4
XFILLER_19_131 vssd1 vssd1 vccd1 vccd1 sky130_fd_sc_hd__decap_4
XFILLER_15_57 vssd1 vssd1 vccd1 vccd1 sky130_fd_sc_hd__fill_2
XFILLER_15_46 vssd1 vssd1 vccd1 vccd1 sky130_fd_sc_hd__decap_4
XTAP_137 vssd1 vccd1 sky130_fd_sc_hd__tapvpwrvgnd_1
XTAP_126 vssd1 vccd1 sky130_fd_sc_hd__tapvpwrvgnd_1
XTAP_115 vssd1 vccd1 sky130_fd_sc_hd__tapvpwrvgnd_1
XFILLER_16_167 vssd1 vssd1 vccd1 vccd1 sky130_fd_sc_hd__decap_4
XTAP_104 vssd1 vccd1 sky130_fd_sc_hd__tapvpwrvgnd_1
XANTENNA_input16_A io_in[25] vssd1 vssd1 vccd1 vccd1 sky130_fd_sc_hd__diode_2
XFILLER_11_3 vssd1 vssd1 vccd1 vccd1 sky130_fd_sc_hd__fill_2
XFILLER_22_126 vssd1 vssd1 vccd1 vccd1 sky130_fd_sc_hd__decap_4
XANTENNA_input8_A io_in[17] vssd1 vssd1 vccd1 vccd1 sky130_fd_sc_hd__diode_2
X_290_ _046_ _048_ _049_ vssd1 vssd1 vccd1 vccd1 _050_ sky130_fd_sc_hd__a21o_1
XFILLER_13_137 vssd1 vssd1 vccd1 vccd1 sky130_ef_sc_hd__decap_12
XFILLER_12_170 vssd1 vssd1 vccd1 vccd1 sky130_fd_sc_hd__decap_4
XFILLER_8_141 vssd1 vssd1 vccd1 vccd1 sky130_ef_sc_hd__decap_12
X_273_ net5 vssd1 vssd1 vccd1 vccd1 _034_ sky130_fd_sc_hd__inv_2
XFILLER_12_58 vssd1 vssd1 vccd1 vccd1 sky130_fd_sc_hd__decap_4
XFILLER_5_8 vssd1 vssd1 vccd1 vccd1 sky130_fd_sc_hd__decap_4
XFILLER_5_111 vssd1 vssd1 vccd1 vccd1 sky130_fd_sc_hd__fill_1
XFILLER_5_188 vssd1 vssd1 vccd1 vccd1 sky130_fd_sc_hd__fill_2
XFILLER_23_57 vssd1 vssd1 vccd1 vccd1 sky130_fd_sc_hd__decap_4
X_325_ net30 _018_ vssd1 vssd1 vccd1 vccd1 mod.clock_counter_b\[0\] sky130_fd_sc_hd__dfxtp_1
X_256_ _141_ vssd1 vssd1 vccd1 vccd1 _029_ sky130_fd_sc_hd__clkbuf_1
X_187_ _077_ _091_ _092_ vssd1 vssd1 vccd1 vccd1 _093_ sky130_fd_sc_hd__and3_1
XFILLER_13_90 vssd1 vssd1 vccd1 vccd1 sky130_fd_sc_hd__decap_4
XFILLER_18_68 vssd1 vssd1 vccd1 vccd1 sky130_fd_sc_hd__decap_4
X_239_ mod.clock_counter_a\[0\] _038_ vssd1 vssd1 vccd1 vccd1 _129_ sky130_fd_sc_hd__and2b_1
X_308_ net30 _001_ vssd1 vssd1 vccd1 vccd1 mod.div_clock\[1\] sky130_fd_sc_hd__dfxtp_1
XFILLER_1_93 vssd1 vssd1 vccd1 vccd1 sky130_ef_sc_hd__decap_12
XFILLER_20_69 vssd1 vssd1 vccd1 vccd1 sky130_fd_sc_hd__fill_1
XFILLER_20_36 vssd1 vssd1 vccd1 vccd1 sky130_fd_sc_hd__decap_4
XFILLER_19_110 vssd1 vssd1 vccd1 vccd1 sky130_fd_sc_hd__fill_2
XFILLER_10_80 vssd1 vssd1 vccd1 vccd1 sky130_fd_sc_hd__decap_4
XFILLER_25_146 vssd1 vssd1 vccd1 vccd1 sky130_fd_sc_hd__decap_4
XFILLER_25_113 vssd1 vssd1 vccd1 vccd1 sky130_fd_sc_hd__fill_2
XTAP_138 vssd1 vccd1 sky130_fd_sc_hd__tapvpwrvgnd_1
XTAP_127 vssd1 vccd1 sky130_fd_sc_hd__tapvpwrvgnd_1
XTAP_116 vssd1 vccd1 sky130_fd_sc_hd__tapvpwrvgnd_1
XFILLER_16_146 vssd1 vssd1 vccd1 vccd1 sky130_fd_sc_hd__decap_4
XFILLER_16_135 vssd1 vssd1 vccd1 vccd1 sky130_fd_sc_hd__fill_1
XTAP_105 vssd1 vccd1 sky130_fd_sc_hd__tapvpwrvgnd_1
XFILLER_7_81 vssd1 vssd1 vccd1 vccd1 sky130_ef_sc_hd__decap_12
XFILLER_13_149 vssd1 vssd1 vccd1 vccd1 sky130_fd_sc_hd__decap_8
XFILLER_16_90 vssd1 vssd1 vccd1 vccd1 sky130_fd_sc_hd__decap_4
XFILLER_8_153 vssd1 vssd1 vccd1 vccd1 sky130_ef_sc_hd__decap_12
X_272_ mod.clock_counter_a\[2\] _150_ _151_ _152_ _032_ vssd1 vssd1 vccd1 vccd1 _033_
+ sky130_fd_sc_hd__a221o_1
XFILLER_12_37 vssd1 vssd1 vccd1 vccd1 sky130_fd_sc_hd__decap_4
XFILLER_5_167 vssd1 vssd1 vccd1 vccd1 sky130_fd_sc_hd__fill_1
X_324_ net30 _017_ vssd1 vssd1 vccd1 vccd1 mod.clock_counter_c\[6\] sky130_fd_sc_hd__dfxtp_1
X_255_ _139_ _140_ _038_ vssd1 vssd1 vccd1 vccd1 _141_ sky130_fd_sc_hd__and3b_1
XFILLER_0_29 vssd1 vssd1 vccd1 vccd1 sky130_ef_sc_hd__decap_12
X_186_ mod.clock_counter_d\[5\] _088_ vssd1 vssd1 vccd1 vccd1 _092_ sky130_fd_sc_hd__nand2_1
XFILLER_9_38 vssd1 vssd1 vccd1 vccd1 sky130_fd_sc_hd__decap_4
XFILLER_1_181 vssd1 vssd1 vccd1 vccd1 sky130_fd_sc_hd__decap_4
XFILLER_18_36 vssd1 vssd1 vccd1 vccd1 sky130_fd_sc_hd__decap_4
XFILLER_1_3 vssd1 vssd1 vccd1 vccd1 sky130_fd_sc_hd__fill_2
X_307_ net32 _000_ vssd1 vssd1 vccd1 vccd1 mod.div_clock\[0\] sky130_fd_sc_hd__dfxtp_1
X_238_ _128_ vssd1 vssd1 vccd1 vccd1 _024_ sky130_fd_sc_hd__clkbuf_1
X_169_ mod.clock_counter_d\[0\] mod.clock_counter_d\[1\] vssd1 vssd1 vccd1 vccd1 _079_
+ sky130_fd_sc_hd__or2_1
XFILLER_19_188 vssd1 vssd1 vccd1 vccd1 sky130_fd_sc_hd__fill_2
XFILLER_19_166 vssd1 vssd1 vccd1 vccd1 sky130_fd_sc_hd__fill_2
XFILLER_25_169 vssd1 vssd1 vccd1 vccd1 sky130_fd_sc_hd__decap_3
XFILLER_15_26 vssd1 vssd1 vccd1 vccd1 sky130_fd_sc_hd__decap_4
XTAP_139 vssd1 vccd1 sky130_fd_sc_hd__tapvpwrvgnd_1
XTAP_128 vssd1 vccd1 sky130_fd_sc_hd__tapvpwrvgnd_1
XFILLER_22_139 vssd1 vssd1 vccd1 vccd1 sky130_fd_sc_hd__fill_1
XTAP_117 vssd1 vccd1 sky130_fd_sc_hd__tapvpwrvgnd_1
XTAP_106 vssd1 vccd1 sky130_fd_sc_hd__tapvpwrvgnd_1
XPHY_0 vssd1 vssd1 vccd1 vccd1 sky130_fd_sc_hd__decap_3
XFILLER_7_93 vssd1 vssd1 vccd1 vccd1 sky130_ef_sc_hd__decap_12
XANTENNA_input21_A io_in[30] vssd1 vssd1 vccd1 vccd1 sky130_fd_sc_hd__diode_2
XFILLER_12_161 vssd1 vssd1 vccd1 vccd1 sky130_fd_sc_hd__fill_1
XFILLER_8_121 vssd1 vssd1 vccd1 vccd1 sky130_ef_sc_hd__decap_12
XFILLER_8_165 vssd1 vssd1 vccd1 vccd1 sky130_ef_sc_hd__decap_12
XFILLER_12_27 vssd1 vssd1 vccd1 vccd1 sky130_fd_sc_hd__fill_1
XFILLER_10_109 vssd1 vssd1 vccd1 vccd1 sky130_ef_sc_hd__decap_12
X_271_ net3 mod.clock_counter_a\[1\] vssd1 vssd1 vccd1 vccd1 _032_ sky130_fd_sc_hd__and2b_1
XFILLER_5_113 vssd1 vssd1 vccd1 vccd1 sky130_ef_sc_hd__decap_12
XFILLER_4_83 vssd1 vssd1 vccd1 vccd1 sky130_fd_sc_hd__fill_1
X_323_ net30 _016_ vssd1 vssd1 vccd1 vccd1 mod.clock_counter_c\[5\] sky130_fd_sc_hd__dfxtp_1
X_254_ mod.clock_counter_a\[4\] _136_ vssd1 vssd1 vccd1 vccd1 _140_ sky130_fd_sc_hd__or2_1
X_185_ mod.clock_counter_d\[5\] _088_ vssd1 vssd1 vccd1 vccd1 _091_ sky130_fd_sc_hd__or2_1
XFILLER_9_17 vssd1 vssd1 vccd1 vccd1 sky130_fd_sc_hd__decap_4
XFILLER_27_3 vssd1 vssd1 vccd1 vccd1 sky130_fd_sc_hd__fill_2
X_237_ mod.clock_counter_b\[5\] _051_ _122_ vssd1 vssd1 vccd1 vccd1 _128_ sky130_fd_sc_hd__and3_1
X_306_ mod.div_clock\[2\] _064_ vssd1 vssd1 vccd1 vccd1 _002_ sky130_fd_sc_hd__xnor2_1
X_168_ _078_ vssd1 vssd1 vccd1 vccd1 _004_ sky130_fd_sc_hd__clkbuf_1
XFILLER_19_178 vssd1 vssd1 vccd1 vccd1 sky130_fd_sc_hd__decap_4
XFILLER_19_145 vssd1 vssd1 vccd1 vccd1 sky130_fd_sc_hd__decap_4
XFILLER_6_29 vssd1 vssd1 vccd1 vccd1 sky130_fd_sc_hd__fill_2
XFILLER_16_104 vssd1 vssd1 vccd1 vccd1 sky130_fd_sc_hd__decap_4
XTAP_129 vssd1 vccd1 sky130_fd_sc_hd__tapvpwrvgnd_1
XTAP_118 vssd1 vccd1 sky130_fd_sc_hd__tapvpwrvgnd_1
XTAP_107 vssd1 vccd1 sky130_fd_sc_hd__tapvpwrvgnd_1
XFILLER_15_181 vssd1 vssd1 vccd1 vccd1 sky130_fd_sc_hd__decap_4
XPHY_1 vssd1 vssd1 vccd1 vccd1 sky130_fd_sc_hd__decap_3
XFILLER_26_48 vssd1 vssd1 vccd1 vccd1 sky130_fd_sc_hd__decap_6
XFILLER_16_70 vssd1 vssd1 vccd1 vccd1 sky130_fd_sc_hd__decap_4
XANTENNA_input14_A io_in[23] vssd1 vssd1 vccd1 vccd1 sky130_fd_sc_hd__diode_2
XFILLER_12_184 vssd1 vssd1 vccd1 vccd1 sky130_fd_sc_hd__fill_1
XFILLER_8_133 vssd1 vssd1 vccd1 vccd1 sky130_fd_sc_hd__decap_6
XFILLER_8_177 vssd1 vssd1 vccd1 vccd1 sky130_fd_sc_hd__decap_8
XFILLER_8_188 vssd1 vssd1 vccd1 vccd1 sky130_fd_sc_hd__fill_2
XANTENNA_input6_A io_in[15] vssd1 vssd1 vccd1 vccd1 sky130_fd_sc_hd__diode_2
X_270_ net2 mod.clock_counter_a\[0\] vssd1 vssd1 vccd1 vccd1 _152_ sky130_fd_sc_hd__and2b_1
XFILLER_5_125 vssd1 vssd1 vccd1 vccd1 sky130_ef_sc_hd__decap_12
XFILLER_5_169 vssd1 vssd1 vccd1 vccd1 sky130_ef_sc_hd__decap_12
X_322_ net30 _015_ vssd1 vssd1 vccd1 vccd1 mod.clock_counter_c\[4\] sky130_fd_sc_hd__dfxtp_1
XFILLER_3_8 vssd1 vssd1 vccd1 vccd1 sky130_ef_sc_hd__decap_12
XFILLER_2_139 vssd1 vssd1 vccd1 vccd1 sky130_fd_sc_hd__fill_1
X_253_ mod.clock_counter_a\[3\] mod.clock_counter_a\[4\] _133_ vssd1 vssd1 vccd1 vccd1
+ _139_ sky130_fd_sc_hd__and3_1
XFILLER_1_161 vssd1 vssd1 vccd1 vccd1 sky130_fd_sc_hd__decap_6
X_184_ _090_ vssd1 vssd1 vccd1 vccd1 _008_ sky130_fd_sc_hd__clkbuf_1
XFILLER_18_27 vssd1 vssd1 vccd1 vccd1 sky130_fd_sc_hd__fill_1
X_305_ mod.clock_counter_c\[5\] _052_ _054_ _063_ mod.clock_counter_c\[6\] vssd1 vssd1
+ vccd1 vccd1 _064_ sky130_fd_sc_hd__a221oi_4
X_236_ _127_ vssd1 vssd1 vccd1 vccd1 _023_ sky130_fd_sc_hd__clkbuf_1
X_167_ mod.clock_counter_d\[0\] _077_ vssd1 vssd1 vccd1 vccd1 _078_ sky130_fd_sc_hd__and2b_1
XFILLER_19_113 vssd1 vssd1 vccd1 vccd1 sky130_fd_sc_hd__fill_2
X_219_ _051_ _113_ _114_ vssd1 vssd1 vccd1 vccd1 _115_ sky130_fd_sc_hd__and3_1
XFILLER_19_124 vssd1 vssd1 vccd1 vccd1 sky130_fd_sc_hd__decap_4
XFILLER_16_138 vssd1 vssd1 vccd1 vccd1 sky130_fd_sc_hd__fill_2
XFILLER_22_119 vssd1 vssd1 vccd1 vccd1 sky130_fd_sc_hd__decap_4
XTAP_119 vssd1 vccd1 sky130_fd_sc_hd__tapvpwrvgnd_1
XTAP_108 vssd1 vccd1 sky130_fd_sc_hd__tapvpwrvgnd_1
XPHY_2 vssd1 vssd1 vccd1 vccd1 sky130_fd_sc_hd__decap_3
XFILLER_26_38 vssd1 vssd1 vccd1 vccd1 sky130_fd_sc_hd__decap_4
XFILLER_26_27 vssd1 vssd1 vccd1 vccd1 sky130_fd_sc_hd__fill_1
XFILLER_21_141 vssd1 vssd1 vccd1 vccd1 sky130_fd_sc_hd__decap_4
XFILLER_21_130 vssd1 vssd1 vccd1 vccd1 sky130_fd_sc_hd__fill_1
XFILLER_13_108 vssd1 vssd1 vccd1 vccd1 sky130_fd_sc_hd__decap_4
XFILLER_12_141 vssd1 vssd1 vccd1 vccd1 sky130_ef_sc_hd__decap_12
XFILLER_12_29 vssd1 vssd1 vccd1 vccd1 sky130_fd_sc_hd__fill_2
XFILLER_5_137 vssd1 vssd1 vccd1 vccd1 sky130_ef_sc_hd__decap_12
XFILLER_4_41 vssd1 vssd1 vccd1 vccd1 sky130_ef_sc_hd__decap_12
XFILLER_4_85 vssd1 vssd1 vccd1 vccd1 sky130_ef_sc_hd__decap_12
X_321_ net30 _014_ vssd1 vssd1 vccd1 vccd1 mod.clock_counter_c\[3\] sky130_fd_sc_hd__dfxtp_1
X_183_ _088_ _089_ _077_ vssd1 vssd1 vccd1 vccd1 _090_ sky130_fd_sc_hd__and3b_1
X_252_ _138_ vssd1 vssd1 vccd1 vccd1 _028_ sky130_fd_sc_hd__clkbuf_1
XFILLER_13_83 vssd1 vssd1 vccd1 vccd1 sky130_fd_sc_hd__decap_4
XFILLER_24_82 vssd1 vssd1 vccd1 vccd1 sky130_fd_sc_hd__fill_2
XFILLER_24_71 vssd1 vssd1 vccd1 vccd1 sky130_fd_sc_hd__decap_4
X_304_ _059_ _061_ _062_ vssd1 vssd1 vccd1 vccd1 _063_ sky130_fd_sc_hd__a21o_1
X_235_ _051_ _125_ _126_ vssd1 vssd1 vccd1 vccd1 _127_ sky130_fd_sc_hd__and3_1
X_166_ mod.div_clock\[3\] _077_ vssd1 vssd1 vccd1 vccd1 _003_ sky130_fd_sc_hd__xnor2_1
XFILLER_20_29 vssd1 vssd1 vccd1 vccd1 sky130_fd_sc_hd__fill_2
XFILLER_1_20 vssd1 vssd1 vccd1 vccd1 sky130_ef_sc_hd__decap_12
XFILLER_10_62 vssd1 vssd1 vccd1 vccd1 sky130_fd_sc_hd__decap_4
X_218_ mod.clock_counter_b\[0\] mod.clock_counter_b\[1\] vssd1 vssd1 vccd1 vccd1 _114_
+ sky130_fd_sc_hd__nand2_1
XFILLER_19_169 vssd1 vssd1 vccd1 vccd1 sky130_fd_sc_hd__decap_4
XFILLER_19_103 vssd1 vssd1 vccd1 vccd1 sky130_fd_sc_hd__decap_4
Xoutput28 net28 vssd1 vssd1 vccd1 vccd1 io_out[35] sky130_fd_sc_hd__buf_2
XTAP_109 vssd1 vccd1 sky130_fd_sc_hd__tapvpwrvgnd_1
XFILLER_16_117 vssd1 vssd1 vccd1 vccd1 sky130_ef_sc_hd__decap_12
XPHY_3 vssd1 vssd1 vccd1 vccd1 sky130_fd_sc_hd__decap_3
XFILLER_16_83 vssd1 vssd1 vccd1 vccd1 sky130_fd_sc_hd__fill_1
XFILLER_12_153 vssd1 vssd1 vccd1 vccd1 sky130_fd_sc_hd__decap_8
XFILLER_12_164 vssd1 vssd1 vccd1 vccd1 sky130_fd_sc_hd__decap_4
XFILLER_5_105 vssd1 vssd1 vccd1 vccd1 sky130_fd_sc_hd__decap_6
XFILLER_5_149 vssd1 vssd1 vccd1 vccd1 sky130_ef_sc_hd__decap_12
XFILLER_27_82 vssd1 vssd1 vccd1 vccd1 sky130_fd_sc_hd__fill_2
XFILLER_4_53 vssd1 vssd1 vccd1 vccd1 sky130_ef_sc_hd__decap_12
XFILLER_4_97 vssd1 vssd1 vccd1 vccd1 sky130_ef_sc_hd__decap_12
X_320_ net29 _013_ vssd1 vssd1 vccd1 vccd1 mod.clock_counter_c\[2\] sky130_fd_sc_hd__dfxtp_1
Xfanout30 net32 vssd1 vssd1 vccd1 vccd1 net30 sky130_fd_sc_hd__buf_2
X_251_ _136_ _137_ _038_ vssd1 vssd1 vccd1 vccd1 _138_ sky130_fd_sc_hd__and3b_1
X_182_ mod.clock_counter_d\[4\] _085_ vssd1 vssd1 vccd1 vccd1 _089_ sky130_fd_sc_hd__or2_1
XFILLER_13_62 vssd1 vssd1 vccd1 vccd1 sky130_fd_sc_hd__decap_4
XFILLER_13_51 vssd1 vssd1 vccd1 vccd1 sky130_fd_sc_hd__decap_4
XFILLER_18_29 vssd1 vssd1 vccd1 vccd1 sky130_fd_sc_hd__fill_2
X_303_ mod.clock_counter_c\[4\] _053_ _060_ mod.clock_counter_c\[3\] vssd1 vssd1 vccd1
+ vccd1 _062_ sky130_fd_sc_hd__a22o_1
X_234_ mod.clock_counter_b\[5\] _122_ vssd1 vssd1 vccd1 vccd1 _126_ sky130_fd_sc_hd__nand2_1
X_165_ mod.clock_counter_d\[5\] _065_ _067_ _076_ mod.clock_counter_d\[6\] vssd1 vssd1
+ vccd1 vccd1 _077_ sky130_fd_sc_hd__a221oi_4
XFILLER_1_32 vssd1 vssd1 vccd1 vccd1 sky130_ef_sc_hd__decap_12
X_217_ mod.clock_counter_b\[0\] mod.clock_counter_b\[1\] vssd1 vssd1 vccd1 vccd1 _113_
+ sky130_fd_sc_hd__or2_1
XFILLER_19_159 vssd1 vssd1 vccd1 vccd1 sky130_fd_sc_hd__decap_4
XFILLER_19_83 vssd1 vssd1 vccd1 vccd1 sky130_fd_sc_hd__fill_1
XFILLER_10_41 vssd1 vssd1 vccd1 vccd1 sky130_fd_sc_hd__decap_4
XFILLER_10_85 vssd1 vssd1 vccd1 vccd1 sky130_ef_sc_hd__decap_12
XFILLER_25_3 vssd1 vssd1 vccd1 vccd1 sky130_fd_sc_hd__fill_2
XFILLER_18_170 vssd1 vssd1 vccd1 vccd1 sky130_fd_sc_hd__decap_4
XFILLER_21_40 vssd1 vssd1 vccd1 vccd1 sky130_fd_sc_hd__decap_4
XFILLER_16_129 vssd1 vssd1 vccd1 vccd1 sky130_fd_sc_hd__decap_6
XPHY_4 vssd1 vssd1 vccd1 vccd1 sky130_fd_sc_hd__decap_3
XFILLER_7_42 vssd1 vssd1 vccd1 vccd1 sky130_fd_sc_hd__decap_4
XFILLER_26_29 vssd1 vssd1 vccd1 vccd1 sky130_fd_sc_hd__fill_2
XFILLER_12_176 vssd1 vssd1 vccd1 vccd1 sky130_fd_sc_hd__decap_8
XANTENNA_input12_A io_in[21] vssd1 vssd1 vccd1 vccd1 sky130_fd_sc_hd__diode_2
XFILLER_2_109 vssd1 vssd1 vccd1 vccd1 sky130_ef_sc_hd__decap_12
XFILLER_4_21 vssd1 vssd1 vccd1 vccd1 sky130_fd_sc_hd__decap_6
XFILLER_4_65 vssd1 vssd1 vccd1 vccd1 sky130_ef_sc_hd__decap_12
X_250_ mod.clock_counter_a\[3\] _133_ vssd1 vssd1 vccd1 vccd1 _137_ sky130_fd_sc_hd__or2_1
XANTENNA_input4_A io_in[13] vssd1 vssd1 vccd1 vccd1 sky130_fd_sc_hd__diode_2
X_181_ mod.clock_counter_d\[3\] mod.clock_counter_d\[4\] _082_ vssd1 vssd1 vccd1 vccd1
+ _088_ sky130_fd_sc_hd__and3_1
Xfanout31 net32 vssd1 vssd1 vccd1 vccd1 net31 sky130_fd_sc_hd__clkbuf_1
XFILLER_13_96 vssd1 vssd1 vccd1 vccd1 sky130_ef_sc_hd__decap_12
XFILLER_1_8 vssd1 vssd1 vccd1 vccd1 sky130_ef_sc_hd__decap_12
X_302_ mod.clock_counter_c\[3\] _060_ _055_ mod.clock_counter_c\[2\] vssd1 vssd1 vccd1
+ vccd1 _061_ sky130_fd_sc_hd__o22a_1
X_233_ mod.clock_counter_b\[5\] _122_ vssd1 vssd1 vccd1 vccd1 _125_ sky130_fd_sc_hd__or2_1
X_164_ _072_ _074_ _075_ vssd1 vssd1 vccd1 vccd1 _076_ sky130_fd_sc_hd__a21o_1
XFILLER_1_44 vssd1 vssd1 vccd1 vccd1 sky130_ef_sc_hd__decap_12
XFILLER_19_138 vssd1 vssd1 vccd1 vccd1 sky130_fd_sc_hd__decap_4
XFILLER_19_40 vssd1 vssd1 vccd1 vccd1 sky130_fd_sc_hd__decap_6
XFILLER_10_97 vssd1 vssd1 vccd1 vccd1 sky130_ef_sc_hd__decap_12
X_216_ _112_ vssd1 vssd1 vccd1 vccd1 _018_ sky130_fd_sc_hd__clkbuf_1
XFILLER_18_3 vssd1 vssd1 vccd1 vccd1 sky130_fd_sc_hd__fill_2
XFILLER_24_141 vssd1 vssd1 vccd1 vccd1 sky130_fd_sc_hd__fill_2
XFILLER_21_96 vssd1 vssd1 vccd1 vccd1 sky130_fd_sc_hd__decap_4
XFILLER_21_52 vssd1 vssd1 vccd1 vccd1 sky130_fd_sc_hd__decap_4
XFILLER_15_174 vssd1 vssd1 vccd1 vccd1 sky130_fd_sc_hd__decap_4
XFILLER_15_152 vssd1 vssd1 vccd1 vccd1 sky130_fd_sc_hd__decap_4
XPHY_5 vssd1 vssd1 vccd1 vccd1 sky130_fd_sc_hd__decap_3
XFILLER_21_188 vssd1 vssd1 vccd1 vccd1 sky130_fd_sc_hd__fill_2
XFILLER_21_177 vssd1 vssd1 vccd1 vccd1 sky130_fd_sc_hd__decap_4
XFILLER_21_166 vssd1 vssd1 vccd1 vccd1 sky130_fd_sc_hd__fill_2
XFILLER_21_122 vssd1 vssd1 vccd1 vccd1 sky130_fd_sc_hd__decap_8
XFILLER_21_111 vssd1 vssd1 vccd1 vccd1 sky130_fd_sc_hd__fill_1
XFILLER_16_85 vssd1 vssd1 vccd1 vccd1 sky130_fd_sc_hd__fill_2
XFILLER_16_63 vssd1 vssd1 vccd1 vccd1 sky130_fd_sc_hd__decap_4
XFILLER_12_188 vssd1 vssd1 vccd1 vccd1 sky130_fd_sc_hd__fill_2
XFILLER_7_181 vssd1 vssd1 vccd1 vccd1 sky130_fd_sc_hd__decap_4
XFILLER_27_62 vssd1 vssd1 vccd1 vccd1 sky130_fd_sc_hd__decap_4
XFILLER_4_77 vssd1 vssd1 vccd1 vccd1 sky130_fd_sc_hd__decap_6
Xfanout32 net26 vssd1 vssd1 vccd1 vccd1 net32 sky130_fd_sc_hd__clkbuf_2
XFILLER_13_42 vssd1 vssd1 vccd1 vccd1 sky130_fd_sc_hd__decap_4
X_180_ _087_ vssd1 vssd1 vccd1 vccd1 _007_ sky130_fd_sc_hd__clkbuf_1
XFILLER_24_85 vssd1 vssd1 vccd1 vccd1 sky130_fd_sc_hd__fill_2
X_232_ _124_ vssd1 vssd1 vccd1 vccd1 _022_ sky130_fd_sc_hd__clkbuf_1
X_163_ mod.clock_counter_d\[4\] _066_ _073_ mod.clock_counter_d\[3\] vssd1 vssd1 vccd1
+ vccd1 _075_ sky130_fd_sc_hd__a22o_1
X_301_ net17 vssd1 vssd1 vccd1 vccd1 _060_ sky130_fd_sc_hd__inv_2
XFILLER_19_117 vssd1 vssd1 vccd1 vccd1 sky130_fd_sc_hd__decap_4
XFILLER_19_96 vssd1 vssd1 vccd1 vccd1 sky130_fd_sc_hd__decap_4
XFILLER_10_21 vssd1 vssd1 vccd1 vccd1 sky130_fd_sc_hd__decap_6
X_215_ mod.clock_counter_b\[0\] _051_ vssd1 vssd1 vccd1 vccd1 _112_ sky130_fd_sc_hd__and2b_1
XFILLER_24_131 vssd1 vssd1 vccd1 vccd1 sky130_fd_sc_hd__decap_4
XFILLER_21_75 vssd1 vssd1 vccd1 vccd1 sky130_fd_sc_hd__decap_4
XFILLER_21_31 vssd1 vssd1 vccd1 vccd1 sky130_fd_sc_hd__decap_4
XPHY_6 vssd1 vssd1 vccd1 vccd1 sky130_fd_sc_hd__decap_3
XFILLER_7_22 vssd1 vssd1 vccd1 vccd1 sky130_fd_sc_hd__decap_4
XFILLER_21_134 vssd1 vssd1 vccd1 vccd1 sky130_fd_sc_hd__decap_4
XFILLER_16_97 vssd1 vssd1 vccd1 vccd1 sky130_fd_sc_hd__decap_4
XFILLER_12_101 vssd1 vssd1 vccd1 vccd1 sky130_ef_sc_hd__decap_12
XFILLER_27_85 vssd1 vssd1 vccd1 vccd1 sky130_fd_sc_hd__fill_2
XFILLER_4_141 vssd1 vssd1 vccd1 vccd1 sky130_ef_sc_hd__decap_12
XFILLER_13_76 vssd1 vssd1 vccd1 vccd1 sky130_fd_sc_hd__decap_4
XFILLER_13_32 vssd1 vssd1 vccd1 vccd1 sky130_fd_sc_hd__decap_4
XFILLER_13_21 vssd1 vssd1 vccd1 vccd1 sky130_fd_sc_hd__decap_4
XFILLER_1_188 vssd1 vssd1 vccd1 vccd1 sky130_fd_sc_hd__fill_2
XFILLER_1_111 vssd1 vssd1 vccd1 vccd1 sky130_fd_sc_hd__fill_1
XFILLER_8_3 vssd1 vssd1 vccd1 vccd1 sky130_fd_sc_hd__fill_2
X_231_ _122_ _123_ _051_ vssd1 vssd1 vccd1 vccd1 _124_ sky130_fd_sc_hd__and3b_1
X_300_ mod.clock_counter_c\[2\] _055_ _056_ _057_ _058_ vssd1 vssd1 vccd1 vccd1 _059_
+ sky130_fd_sc_hd__a221o_1
X_162_ mod.clock_counter_d\[3\] _073_ _068_ mod.clock_counter_d\[2\] vssd1 vssd1 vccd1
+ vccd1 _074_ sky130_fd_sc_hd__o22a_1
XFILLER_1_57 vssd1 vssd1 vccd1 vccd1 sky130_ef_sc_hd__decap_12