*SPEF "ieee 1481-1999"
*DESIGN "tiny_user_project"
*DATE "11:11:11 Fri 11 11, 1111"
*VENDOR "OpenRCX"
*PROGRAM "Parallel Extraction"
*VERSION "1.0"
*DESIGN_FLOW "NAME_SCOPE LOCAL" "PIN_CAP NONE"
*DIVIDER /
*DELIMITER :
*BUS_DELIMITER []
*T_UNIT 1 NS
*C_UNIT 1 PF
*R_UNIT 1 OHM
*L_UNIT 1 HENRY

*NAME_MAP
*1 io_in[0]
*2 io_in[10]
*3 io_in[11]
*4 io_in[12]
*5 io_in[13]
*6 io_in[14]
*7 io_in[15]
*8 io_in[16]
*9 io_in[17]
*10 io_in[18]
*11 io_in[19]
*12 io_in[1]
*13 io_in[20]
*14 io_in[21]
*15 io_in[22]
*16 io_in[23]
*17 io_in[24]
*18 io_in[25]
*19 io_in[26]
*20 io_in[27]
*21 io_in[28]
*22 io_in[29]
*23 io_in[2]
*24 io_in[30]
*25 io_in[31]
*26 io_in[32]
*27 io_in[33]
*28 io_in[34]
*29 io_in[35]
*30 io_in[36]
*31 io_in[37]
*32 io_in[3]
*33 io_in[4]
*34 io_in[5]
*35 io_in[6]
*36 io_in[7]
*37 io_in[8]
*38 io_in[9]
*39 net39
*40 net49
*41 net50
*42 net51
*43 net52
*44 net53
*45 net54
*46 net55
*47 net56
*48 net57
*49 net58
*50 net40
*51 net59
*52 net60
*53 net61
*54 net62
*55 net63
*56 net64
*57 net65
*58 net66
*59 net67
*60 net68
*61 net41
*62 net69
*63 net70
*64 net71
*65 net72
*66 net73
*67 net74
*68 net75
*69 net76
*70 net42
*71 net43
*72 net44
*73 net45
*74 net46
*75 net47
*76 net48
*77 net1
*78 net11
*79 net12
*80 net13
*81 net14
*82 net15
*83 net16
*84 net17
*85 net18
*86 net19
*87 net20
*88 net2
*89 net21
*90 net22
*91 net23
*92 net24
*93 net25
*94 net26
*95 net27
*96 net28
*97 net29
*98 net30
*99 net3
*100 net31
*101 net32
*102 net33
*103 net34
*104 net35
*105 net36
*106 net37
*107 net38
*108 net4
*109 net5
*110 net6
*111 net7
*112 net8
*113 net9
*114 net10
*115 FILLER_0_109
*116 FILLER_0_113
*117 FILLER_0_125
*118 FILLER_0_137
*119 FILLER_0_141
*120 FILLER_0_153
*121 FILLER_0_165
*122 FILLER_0_169
*123 FILLER_0_181
*124 FILLER_0_193
*125 FILLER_0_197
*126 FILLER_0_20
*127 FILLER_0_209
*128 FILLER_0_221
*129 FILLER_0_225
*130 FILLER_0_237
*131 FILLER_0_249
*132 FILLER_0_253
*133 FILLER_0_265
*134 FILLER_0_277
*135 FILLER_0_281
*136 FILLER_0_29
*137 FILLER_0_293
*138 FILLER_0_3
*139 FILLER_0_305
*140 FILLER_0_309
*141 FILLER_0_321
*142 FILLER_0_333
*143 FILLER_0_337
*144 FILLER_0_349
*145 FILLER_0_361
*146 FILLER_0_365
*147 FILLER_0_377
*148 FILLER_0_389
*149 FILLER_0_393
*150 FILLER_0_405
*151 FILLER_0_41
*152 FILLER_0_417
*153 FILLER_0_421
*154 FILLER_0_433
*155 FILLER_0_445
*156 FILLER_0_449
*157 FILLER_0_461
*158 FILLER_0_473
*159 FILLER_0_477
*160 FILLER_0_489
*161 FILLER_0_501
*162 FILLER_0_505
*163 FILLER_0_517
*164 FILLER_0_529
*165 FILLER_0_53
*166 FILLER_0_533
*167 FILLER_0_545
*168 FILLER_0_557
*169 FILLER_0_561
*170 FILLER_0_57
*171 FILLER_0_573
*172 FILLER_0_585
*173 FILLER_0_589
*174 FILLER_0_601
*175 FILLER_0_613
*176 FILLER_0_617
*177 FILLER_0_69
*178 FILLER_0_8
*179 FILLER_0_81
*180 FILLER_0_85
*181 FILLER_0_97
*182 FILLER_100_109
*183 FILLER_100_121
*184 FILLER_100_133
*185 FILLER_100_139
*186 FILLER_100_141
*187 FILLER_100_153
*188 FILLER_100_165
*189 FILLER_100_177
*190 FILLER_100_189
*191 FILLER_100_195
*192 FILLER_100_197
*193 FILLER_100_20
*194 FILLER_100_209
*195 FILLER_100_221
*196 FILLER_100_233
*197 FILLER_100_245
*198 FILLER_100_251
*199 FILLER_100_253
*200 FILLER_100_265
*201 FILLER_100_277
*202 FILLER_100_289
*203 FILLER_100_29
*204 FILLER_100_3
*205 FILLER_100_301
*206 FILLER_100_307
*207 FILLER_100_309
*208 FILLER_100_321
*209 FILLER_100_333
*210 FILLER_100_345
*211 FILLER_100_357
*212 FILLER_100_363
*213 FILLER_100_365
*214 FILLER_100_377
*215 FILLER_100_389
*216 FILLER_100_401
*217 FILLER_100_41
*218 FILLER_100_413
*219 FILLER_100_419
*220 FILLER_100_421
*221 FILLER_100_433
*222 FILLER_100_445
*223 FILLER_100_457
*224 FILLER_100_469
*225 FILLER_100_475
*226 FILLER_100_477
*227 FILLER_100_489
*228 FILLER_100_501
*229 FILLER_100_513
*230 FILLER_100_525
*231 FILLER_100_53
*232 FILLER_100_531
*233 FILLER_100_533
*234 FILLER_100_545
*235 FILLER_100_557
*236 FILLER_100_569
*237 FILLER_100_581
*238 FILLER_100_587
*239 FILLER_100_589
*240 FILLER_100_601
*241 FILLER_100_613
*242 FILLER_100_65
*243 FILLER_100_77
*244 FILLER_100_8
*245 FILLER_100_83
*246 FILLER_100_85
*247 FILLER_100_97
*248 FILLER_101_101
*249 FILLER_101_109
*250 FILLER_101_113
*251 FILLER_101_125
*252 FILLER_101_137
*253 FILLER_101_141
*254 FILLER_101_145
*255 FILLER_101_149
*256 FILLER_101_161
*257 FILLER_101_167
*258 FILLER_101_169
*259 FILLER_101_174
*260 FILLER_101_186
*261 FILLER_101_194
*262 FILLER_101_197
*263 FILLER_101_20
*264 FILLER_101_209
*265 FILLER_101_217
*266 FILLER_101_221
*267 FILLER_101_225
*268 FILLER_101_237
*269 FILLER_101_241
*270 FILLER_101_245
*271 FILLER_101_251
*272 FILLER_101_253
*273 FILLER_101_265
*274 FILLER_101_277
*275 FILLER_101_281
*276 FILLER_101_289
*277 FILLER_101_29
*278 FILLER_101_293
*279 FILLER_101_3
*280 FILLER_101_305
*281 FILLER_101_309
*282 FILLER_101_313
*283 FILLER_101_317
*284 FILLER_101_329
*285 FILLER_101_335
*286 FILLER_101_337
*287 FILLER_101_34
*288 FILLER_101_349
*289 FILLER_101_361
*290 FILLER_101_365
*291 FILLER_101_370
*292 FILLER_101_382
*293 FILLER_101_389
*294 FILLER_101_393
*295 FILLER_101_405
*296 FILLER_101_417
*297 FILLER_101_421
*298 FILLER_101_433
*299 FILLER_101_437
*300 FILLER_101_445
*301 FILLER_101_449
*302 FILLER_101_457
*303 FILLER_101_46
*304 FILLER_101_461
*305 FILLER_101_473
*306 FILLER_101_477
*307 FILLER_101_489
*308 FILLER_101_501
*309 FILLER_101_505
*310 FILLER_101_510
*311 FILLER_101_522
*312 FILLER_101_530
*313 FILLER_101_533
*314 FILLER_101_538
*315 FILLER_101_54
*316 FILLER_101_550
*317 FILLER_101_558
*318 FILLER_101_561
*319 FILLER_101_57
*320 FILLER_101_573
*321 FILLER_101_577
*322 FILLER_101_581
*323 FILLER_101_587
*324 FILLER_101_589
*325 FILLER_101_601
*326 FILLER_101_605
*327 FILLER_101_613
*328 FILLER_101_617
*329 FILLER_101_623
*330 FILLER_101_69
*331 FILLER_101_73
*332 FILLER_101_77
*333 FILLER_101_8
*334 FILLER_101_83
*335 FILLER_101_85
*336 FILLER_101_97
*337 FILLER_10_109
*338 FILLER_10_121
*339 FILLER_10_133
*340 FILLER_10_139
*341 FILLER_10_141
*342 FILLER_10_153
*343 FILLER_10_165
*344 FILLER_10_177
*345 FILLER_10_189
*346 FILLER_10_195
*347 FILLER_10_197
*348 FILLER_10_20
*349 FILLER_10_209
*350 FILLER_10_221
*351 FILLER_10_233
*352 FILLER_10_245
*353 FILLER_10_251
*354 FILLER_10_253
*355 FILLER_10_265
*356 FILLER_10_277
*357 FILLER_10_289
*358 FILLER_10_29
*359 FILLER_10_3
*360 FILLER_10_301
*361 FILLER_10_307
*362 FILLER_10_309
*363 FILLER_10_321
*364 FILLER_10_333
*365 FILLER_10_345
*366 FILLER_10_357
*367 FILLER_10_363
*368 FILLER_10_365
*369 FILLER_10_377
*370 FILLER_10_389
*371 FILLER_10_401
*372 FILLER_10_41
*373 FILLER_10_413
*374 FILLER_10_419
*375 FILLER_10_421
*376 FILLER_10_433
*377 FILLER_10_445
*378 FILLER_10_457
*379 FILLER_10_469
*380 FILLER_10_475
*381 FILLER_10_477
*382 FILLER_10_489
*383 FILLER_10_501
*384 FILLER_10_513
*385 FILLER_10_525
*386 FILLER_10_53
*387 FILLER_10_531
*388 FILLER_10_533
*389 FILLER_10_545
*390 FILLER_10_557
*391 FILLER_10_569
*392 FILLER_10_581
*393 FILLER_10_587
*394 FILLER_10_589
*395 FILLER_10_601
*396 FILLER_10_613
*397 FILLER_10_65
*398 FILLER_10_77
*399 FILLER_10_8
*400 FILLER_10_83
*401 FILLER_10_85
*402 FILLER_10_97
*403 FILLER_11_105
*404 FILLER_11_111
*405 FILLER_11_113
*406 FILLER_11_125
*407 FILLER_11_137
*408 FILLER_11_149
*409 FILLER_11_15
*410 FILLER_11_161
*411 FILLER_11_167
*412 FILLER_11_169
*413 FILLER_11_181
*414 FILLER_11_193
*415 FILLER_11_205
*416 FILLER_11_217
*417 FILLER_11_223
*418 FILLER_11_225
*419 FILLER_11_237
*420 FILLER_11_249
*421 FILLER_11_261
*422 FILLER_11_27
*423 FILLER_11_273
*424 FILLER_11_279
*425 FILLER_11_281
*426 FILLER_11_293
*427 FILLER_11_3
*428 FILLER_11_305
*429 FILLER_11_317
*430 FILLER_11_329
*431 FILLER_11_335
*432 FILLER_11_337
*433 FILLER_11_349
*434 FILLER_11_361
*435 FILLER_11_373
*436 FILLER_11_385
*437 FILLER_11_39
*438 FILLER_11_391
*439 FILLER_11_393
*440 FILLER_11_405
*441 FILLER_11_417
*442 FILLER_11_429
*443 FILLER_11_441
*444 FILLER_11_447
*445 FILLER_11_449
*446 FILLER_11_461
*447 FILLER_11_473
*448 FILLER_11_485
*449 FILLER_11_497
*450 FILLER_11_503
*451 FILLER_11_505
*452 FILLER_11_51
*453 FILLER_11_517
*454 FILLER_11_529
*455 FILLER_11_541
*456 FILLER_11_55
*457 FILLER_11_553
*458 FILLER_11_559
*459 FILLER_11_561
*460 FILLER_11_57
*461 FILLER_11_573
*462 FILLER_11_585
*463 FILLER_11_597
*464 FILLER_11_609
*465 FILLER_11_615
*466 FILLER_11_617
*467 FILLER_11_623
*468 FILLER_11_69
*469 FILLER_11_81
*470 FILLER_11_93
*471 FILLER_12_109
*472 FILLER_12_121
*473 FILLER_12_133
*474 FILLER_12_139
*475 FILLER_12_141
*476 FILLER_12_15
*477 FILLER_12_153
*478 FILLER_12_165
*479 FILLER_12_177
*480 FILLER_12_189
*481 FILLER_12_195
*482 FILLER_12_197
*483 FILLER_12_209
*484 FILLER_12_221
*485 FILLER_12_233
*486 FILLER_12_245
*487 FILLER_12_251
*488 FILLER_12_253
*489 FILLER_12_265
*490 FILLER_12_27
*491 FILLER_12_277
*492 FILLER_12_289
*493 FILLER_12_29
*494 FILLER_12_3
*495 FILLER_12_301
*496 FILLER_12_307
*497 FILLER_12_309
*498 FILLER_12_321
*499 FILLER_12_333
*500 FILLER_12_345
*501 FILLER_12_357
*502 FILLER_12_363
*503 FILLER_12_365
*504 FILLER_12_377
*505 FILLER_12_389
*506 FILLER_12_401
*507 FILLER_12_41
*508 FILLER_12_413
*509 FILLER_12_419
*510 FILLER_12_421
*511 FILLER_12_433
*512 FILLER_12_445
*513 FILLER_12_457
*514 FILLER_12_469
*515 FILLER_12_475
*516 FILLER_12_477
*517 FILLER_12_489
*518 FILLER_12_501
*519 FILLER_12_513
*520 FILLER_12_525
*521 FILLER_12_53
*522 FILLER_12_531
*523 FILLER_12_533
*524 FILLER_12_545
*525 FILLER_12_557
*526 FILLER_12_569
*527 FILLER_12_581
*528 FILLER_12_587
*529 FILLER_12_589
*530 FILLER_12_601
*531 FILLER_12_613
*532 FILLER_12_65
*533 FILLER_12_77
*534 FILLER_12_83
*535 FILLER_12_85
*536 FILLER_12_97
*537 FILLER_13_105
*538 FILLER_13_111
*539 FILLER_13_113
*540 FILLER_13_125
*541 FILLER_13_137
*542 FILLER_13_149
*543 FILLER_13_15
*544 FILLER_13_161
*545 FILLER_13_167
*546 FILLER_13_169
*547 FILLER_13_181
*548 FILLER_13_193
*549 FILLER_13_205
*550 FILLER_13_217
*551 FILLER_13_223
*552 FILLER_13_225
*553 FILLER_13_237
*554 FILLER_13_249
*555 FILLER_13_261
*556 FILLER_13_27
*557 FILLER_13_273
*558 FILLER_13_279
*559 FILLER_13_281
*560 FILLER_13_293
*561 FILLER_13_3
*562 FILLER_13_305
*563 FILLER_13_317
*564 FILLER_13_329
*565 FILLER_13_335
*566 FILLER_13_337
*567 FILLER_13_349
*568 FILLER_13_361
*569 FILLER_13_373
*570 FILLER_13_385
*571 FILLER_13_39
*572 FILLER_13_391
*573 FILLER_13_393
*574 FILLER_13_405
*575 FILLER_13_417
*576 FILLER_13_429
*577 FILLER_13_441
*578 FILLER_13_447
*579 FILLER_13_449
*580 FILLER_13_461
*581 FILLER_13_473
*582 FILLER_13_485
*583 FILLER_13_497
*584 FILLER_13_503
*585 FILLER_13_505
*586 FILLER_13_51
*587 FILLER_13_517
*588 FILLER_13_529
*589 FILLER_13_541
*590 FILLER_13_55
*591 FILLER_13_553
*592 FILLER_13_559
*593 FILLER_13_561
*594 FILLER_13_57
*595 FILLER_13_573
*596 FILLER_13_585
*597 FILLER_13_597
*598 FILLER_13_609
*599 FILLER_13_615
*600 FILLER_13_617
*601 FILLER_13_623
*602 FILLER_13_69
*603 FILLER_13_81
*604 FILLER_13_93
*605 FILLER_14_109
*606 FILLER_14_121
*607 FILLER_14_133
*608 FILLER_14_139
*609 FILLER_14_141
*610 FILLER_14_15
*611 FILLER_14_153
*612 FILLER_14_165
*613 FILLER_14_177
*614 FILLER_14_189
*615 FILLER_14_195
*616 FILLER_14_197
*617 FILLER_14_209
*618 FILLER_14_221
*619 FILLER_14_233
*620 FILLER_14_245
*621 FILLER_14_251
*622 FILLER_14_253
*623 FILLER_14_265
*624 FILLER_14_27
*625 FILLER_14_277
*626 FILLER_14_289
*627 FILLER_14_29
*628 FILLER_14_3
*629 FILLER_14_301
*630 FILLER_14_307
*631 FILLER_14_309
*632 FILLER_14_321
*633 FILLER_14_333
*634 FILLER_14_345
*635 FILLER_14_357
*636 FILLER_14_363
*637 FILLER_14_365
*638 FILLER_14_377
*639 FILLER_14_389
*640 FILLER_14_401
*641 FILLER_14_41
*642 FILLER_14_413
*643 FILLER_14_419
*644 FILLER_14_421
*645 FILLER_14_433
*646 FILLER_14_445
*647 FILLER_14_457
*648 FILLER_14_469
*649 FILLER_14_475
*650 FILLER_14_477
*651 FILLER_14_489
*652 FILLER_14_501
*653 FILLER_14_513
*654 FILLER_14_525
*655 FILLER_14_53
*656 FILLER_14_531
*657 FILLER_14_533
*658 FILLER_14_545
*659 FILLER_14_557
*660 FILLER_14_569
*661 FILLER_14_581
*662 FILLER_14_587
*663 FILLER_14_589
*664 FILLER_14_601
*665 FILLER_14_613
*666 FILLER_14_65
*667 FILLER_14_77
*668 FILLER_14_83
*669 FILLER_14_85
*670 FILLER_14_97
*671 FILLER_15_105
*672 FILLER_15_111
*673 FILLER_15_113
*674 FILLER_15_125
*675 FILLER_15_137
*676 FILLER_15_149
*677 FILLER_15_161
*678 FILLER_15_167
*679 FILLER_15_169
*680 FILLER_15_181
*681 FILLER_15_193
*682 FILLER_15_20
*683 FILLER_15_205
*684 FILLER_15_217
*685 FILLER_15_223
*686 FILLER_15_225
*687 FILLER_15_237
*688 FILLER_15_249
*689 FILLER_15_261
*690 FILLER_15_273
*691 FILLER_15_279
*692 FILLER_15_281
*693 FILLER_15_293
*694 FILLER_15_3
*695 FILLER_15_305
*696 FILLER_15_317
*697 FILLER_15_32
*698 FILLER_15_329
*699 FILLER_15_335
*700 FILLER_15_337
*701 FILLER_15_349
*702 FILLER_15_361
*703 FILLER_15_373
*704 FILLER_15_385
*705 FILLER_15_391
*706 FILLER_15_393
*707 FILLER_15_405
*708 FILLER_15_417
*709 FILLER_15_429
*710 FILLER_15_44
*711 FILLER_15_441
*712 FILLER_15_447
*713 FILLER_15_449
*714 FILLER_15_461
*715 FILLER_15_473
*716 FILLER_15_485
*717 FILLER_15_497
*718 FILLER_15_503
*719 FILLER_15_505
*720 FILLER_15_517
*721 FILLER_15_529
*722 FILLER_15_541
*723 FILLER_15_553
*724 FILLER_15_559
*725 FILLER_15_561
*726 FILLER_15_57
*727 FILLER_15_573
*728 FILLER_15_585
*729 FILLER_15_597
*730 FILLER_15_609
*731 FILLER_15_615
*732 FILLER_15_617
*733 FILLER_15_69
*734 FILLER_15_8
*735 FILLER_15_81
*736 FILLER_15_93
*737 FILLER_16_109
*738 FILLER_16_121
*739 FILLER_16_133
*740 FILLER_16_139
*741 FILLER_16_141
*742 FILLER_16_15
*743 FILLER_16_153
*744 FILLER_16_165
*745 FILLER_16_177
*746 FILLER_16_189
*747 FILLER_16_195
*748 FILLER_16_197
*749 FILLER_16_209
*750 FILLER_16_221
*751 FILLER_16_233
*752 FILLER_16_245
*753 FILLER_16_251
*754 FILLER_16_253
*755 FILLER_16_265
*756 FILLER_16_27
*757 FILLER_16_277
*758 FILLER_16_289
*759 FILLER_16_29
*760 FILLER_16_3
*761 FILLER_16_301
*762 FILLER_16_307
*763 FILLER_16_309
*764 FILLER_16_321
*765 FILLER_16_333
*766 FILLER_16_345
*767 FILLER_16_357
*768 FILLER_16_363
*769 FILLER_16_365
*770 FILLER_16_377
*771 FILLER_16_389
*772 FILLER_16_401
*773 FILLER_16_41
*774 FILLER_16_413
*775 FILLER_16_419
*776 FILLER_16_421
*777 FILLER_16_433
*778 FILLER_16_445
*779 FILLER_16_457
*780 FILLER_16_469
*781 FILLER_16_475
*782 FILLER_16_477
*783 FILLER_16_489
*784 FILLER_16_501
*785 FILLER_16_513
*786 FILLER_16_525
*787 FILLER_16_53
*788 FILLER_16_531
*789 FILLER_16_533
*790 FILLER_16_545
*791 FILLER_16_557
*792 FILLER_16_569
*793 FILLER_16_581
*794 FILLER_16_587
*795 FILLER_16_589
*796 FILLER_16_601
*797 FILLER_16_613
*798 FILLER_16_65
*799 FILLER_16_77
*800 FILLER_16_83
*801 FILLER_16_85
*802 FILLER_16_97
*803 FILLER_17_105
*804 FILLER_17_111
*805 FILLER_17_113
*806 FILLER_17_125
*807 FILLER_17_137
*808 FILLER_17_149
*809 FILLER_17_161
*810 FILLER_17_167
*811 FILLER_17_169
*812 FILLER_17_181
*813 FILLER_17_193
*814 FILLER_17_20
*815 FILLER_17_205
*816 FILLER_17_217
*817 FILLER_17_223
*818 FILLER_17_225
*819 FILLER_17_237
*820 FILLER_17_249
*821 FILLER_17_261
*822 FILLER_17_273
*823 FILLER_17_279
*824 FILLER_17_281
*825 FILLER_17_293
*826 FILLER_17_3
*827 FILLER_17_305
*828 FILLER_17_317
*829 FILLER_17_32
*830 FILLER_17_329
*831 FILLER_17_335
*832 FILLER_17_337
*833 FILLER_17_349
*834 FILLER_17_361
*835 FILLER_17_373
*836 FILLER_17_385
*837 FILLER_17_391
*838 FILLER_17_393
*839 FILLER_17_405
*840 FILLER_17_417
*841 FILLER_17_429
*842 FILLER_17_44
*843 FILLER_17_441
*844 FILLER_17_447
*845 FILLER_17_449
*846 FILLER_17_461
*847 FILLER_17_473
*848 FILLER_17_485
*849 FILLER_17_497
*850 FILLER_17_503
*851 FILLER_17_505
*852 FILLER_17_517
*853 FILLER_17_529
*854 FILLER_17_541
*855 FILLER_17_553
*856 FILLER_17_559
*857 FILLER_17_561
*858 FILLER_17_57
*859 FILLER_17_573
*860 FILLER_17_585
*861 FILLER_17_597
*862 FILLER_17_609
*863 FILLER_17_615
*864 FILLER_17_617
*865 FILLER_17_623
*866 FILLER_17_69
*867 FILLER_17_8
*868 FILLER_17_81
*869 FILLER_17_93
*870 FILLER_18_109
*871 FILLER_18_121
*872 FILLER_18_133
*873 FILLER_18_139
*874 FILLER_18_141
*875 FILLER_18_15
*876 FILLER_18_153
*877 FILLER_18_165
*878 FILLER_18_177
*879 FILLER_18_189
*880 FILLER_18_195
*881 FILLER_18_197
*882 FILLER_18_209
*883 FILLER_18_221
*884 FILLER_18_233
*885 FILLER_18_245
*886 FILLER_18_251
*887 FILLER_18_253
*888 FILLER_18_265
*889 FILLER_18_27
*890 FILLER_18_277
*891 FILLER_18_289
*892 FILLER_18_29
*893 FILLER_18_3
*894 FILLER_18_301
*895 FILLER_18_307
*896 FILLER_18_309
*897 FILLER_18_321
*898 FILLER_18_333
*899 FILLER_18_345
*900 FILLER_18_357
*901 FILLER_18_363
*902 FILLER_18_365
*903 FILLER_18_377
*904 FILLER_18_389
*905 FILLER_18_401
*906 FILLER_18_41
*907 FILLER_18_413
*908 FILLER_18_419
*909 FILLER_18_421
*910 FILLER_18_433
*911 FILLER_18_445
*912 FILLER_18_457
*913 FILLER_18_469
*914 FILLER_18_475
*915 FILLER_18_477
*916 FILLER_18_489
*917 FILLER_18_501
*918 FILLER_18_513
*919 FILLER_18_525
*920 FILLER_18_53
*921 FILLER_18_531
*922 FILLER_18_533
*923 FILLER_18_545
*924 FILLER_18_557
*925 FILLER_18_569
*926 FILLER_18_581
*927 FILLER_18_587
*928 FILLER_18_589
*929 FILLER_18_601
*930 FILLER_18_613
*931 FILLER_18_65
*932 FILLER_18_77
*933 FILLER_18_83
*934 FILLER_18_85
*935 FILLER_18_97
*936 FILLER_19_105
*937 FILLER_19_111
*938 FILLER_19_113
*939 FILLER_19_125
*940 FILLER_19_137
*941 FILLER_19_149
*942 FILLER_19_15
*943 FILLER_19_161
*944 FILLER_19_167
*945 FILLER_19_169
*946 FILLER_19_181
*947 FILLER_19_193
*948 FILLER_19_205
*949 FILLER_19_217
*950 FILLER_19_223
*951 FILLER_19_225
*952 FILLER_19_237
*953 FILLER_19_249
*954 FILLER_19_261
*955 FILLER_19_27
*956 FILLER_19_273
*957 FILLER_19_279
*958 FILLER_19_281
*959 FILLER_19_293
*960 FILLER_19_3
*961 FILLER_19_305
*962 FILLER_19_317
*963 FILLER_19_329
*964 FILLER_19_335
*965 FILLER_19_337
*966 FILLER_19_349
*967 FILLER_19_361
*968 FILLER_19_373
*969 FILLER_19_385
*970 FILLER_19_39
*971 FILLER_19_391
*972 FILLER_19_393
*973 FILLER_19_405
*974 FILLER_19_417
*975 FILLER_19_429
*976 FILLER_19_441
*977 FILLER_19_447
*978 FILLER_19_449
*979 FILLER_19_461
*980 FILLER_19_473
*981 FILLER_19_485
*982 FILLER_19_497
*983 FILLER_19_503
*984 FILLER_19_505
*985 FILLER_19_51
*986 FILLER_19_517
*987 FILLER_19_529
*988 FILLER_19_541
*989 FILLER_19_55
*990 FILLER_19_553
*991 FILLER_19_559
*992 FILLER_19_561
*993 FILLER_19_57
*994 FILLER_19_573
*995 FILLER_19_585
*996 FILLER_19_597
*997 FILLER_19_609
*998 FILLER_19_615
*999 FILLER_19_617
*1000 FILLER_19_69
*1001 FILLER_19_81
*1002 FILLER_19_93
*1003 FILLER_1_105
*1004 FILLER_1_111
*1005 FILLER_1_113
*1006 FILLER_1_125
*1007 FILLER_1_137
*1008 FILLER_1_149
*1009 FILLER_1_15
*1010 FILLER_1_161
*1011 FILLER_1_167
*1012 FILLER_1_169
*1013 FILLER_1_181
*1014 FILLER_1_193
*1015 FILLER_1_205
*1016 FILLER_1_217
*1017 FILLER_1_223
*1018 FILLER_1_225
*1019 FILLER_1_237
*1020 FILLER_1_249
*1021 FILLER_1_261
*1022 FILLER_1_27
*1023 FILLER_1_273
*1024 FILLER_1_279
*1025 FILLER_1_281
*1026 FILLER_1_293
*1027 FILLER_1_3
*1028 FILLER_1_305
*1029 FILLER_1_317
*1030 FILLER_1_329
*1031 FILLER_1_335
*1032 FILLER_1_337
*1033 FILLER_1_349
*1034 FILLER_1_361
*1035 FILLER_1_373
*1036 FILLER_1_385
*1037 FILLER_1_39
*1038 FILLER_1_391
*1039 FILLER_1_393
*1040 FILLER_1_405
*1041 FILLER_1_417
*1042 FILLER_1_429
*1043 FILLER_1_441
*1044 FILLER_1_447
*1045 FILLER_1_449
*1046 FILLER_1_461
*1047 FILLER_1_473
*1048 FILLER_1_485
*1049 FILLER_1_497
*1050 FILLER_1_503
*1051 FILLER_1_505
*1052 FILLER_1_51
*1053 FILLER_1_517
*1054 FILLER_1_529
*1055 FILLER_1_541
*1056 FILLER_1_55
*1057 FILLER_1_553
*1058 FILLER_1_559
*1059 FILLER_1_561
*1060 FILLER_1_57
*1061 FILLER_1_573
*1062 FILLER_1_585
*1063 FILLER_1_597
*1064 FILLER_1_609
*1065 FILLER_1_615
*1066 FILLER_1_617
*1067 FILLER_1_69
*1068 FILLER_1_81
*1069 FILLER_1_93
*1070 FILLER_20_109
*1071 FILLER_20_121
*1072 FILLER_20_133
*1073 FILLER_20_139
*1074 FILLER_20_141
*1075 FILLER_20_15
*1076 FILLER_20_153
*1077 FILLER_20_165
*1078 FILLER_20_177
*1079 FILLER_20_189
*1080 FILLER_20_195
*1081 FILLER_20_197
*1082 FILLER_20_209
*1083 FILLER_20_221
*1084 FILLER_20_233
*1085 FILLER_20_245
*1086 FILLER_20_251
*1087 FILLER_20_253
*1088 FILLER_20_265
*1089 FILLER_20_27
*1090 FILLER_20_277
*1091 FILLER_20_289
*1092 FILLER_20_29
*1093 FILLER_20_3
*1094 FILLER_20_301
*1095 FILLER_20_307
*1096 FILLER_20_309
*1097 FILLER_20_321
*1098 FILLER_20_333
*1099 FILLER_20_345
*1100 FILLER_20_357
*1101 FILLER_20_363
*1102 FILLER_20_365
*1103 FILLER_20_377
*1104 FILLER_20_389
*1105 FILLER_20_401
*1106 FILLER_20_41
*1107 FILLER_20_413
*1108 FILLER_20_419
*1109 FILLER_20_421
*1110 FILLER_20_433
*1111 FILLER_20_445
*1112 FILLER_20_457
*1113 FILLER_20_469
*1114 FILLER_20_475
*1115 FILLER_20_477
*1116 FILLER_20_489
*1117 FILLER_20_501
*1118 FILLER_20_513
*1119 FILLER_20_525
*1120 FILLER_20_53
*1121 FILLER_20_531
*1122 FILLER_20_533
*1123 FILLER_20_545
*1124 FILLER_20_557
*1125 FILLER_20_569
*1126 FILLER_20_581
*1127 FILLER_20_587
*1128 FILLER_20_589
*1129 FILLER_20_601
*1130 FILLER_20_613
*1131 FILLER_20_619
*1132 FILLER_20_623
*1133 FILLER_20_65
*1134 FILLER_20_77
*1135 FILLER_20_83
*1136 FILLER_20_85
*1137 FILLER_20_97
*1138 FILLER_21_105
*1139 FILLER_21_111
*1140 FILLER_21_113
*1141 FILLER_21_125
*1142 FILLER_21_137
*1143 FILLER_21_149
*1144 FILLER_21_15
*1145 FILLER_21_161
*1146 FILLER_21_167
*1147 FILLER_21_169
*1148 FILLER_21_181
*1149 FILLER_21_193
*1150 FILLER_21_205
*1151 FILLER_21_217
*1152 FILLER_21_223
*1153 FILLER_21_225
*1154 FILLER_21_237
*1155 FILLER_21_249
*1156 FILLER_21_261
*1157 FILLER_21_27
*1158 FILLER_21_273
*1159 FILLER_21_279
*1160 FILLER_21_281
*1161 FILLER_21_293
*1162 FILLER_21_3
*1163 FILLER_21_305
*1164 FILLER_21_317
*1165 FILLER_21_329
*1166 FILLER_21_335
*1167 FILLER_21_337
*1168 FILLER_21_349
*1169 FILLER_21_361
*1170 FILLER_21_373
*1171 FILLER_21_385
*1172 FILLER_21_39
*1173 FILLER_21_391
*1174 FILLER_21_393
*1175 FILLER_21_405
*1176 FILLER_21_417
*1177 FILLER_21_429
*1178 FILLER_21_441
*1179 FILLER_21_447
*1180 FILLER_21_449
*1181 FILLER_21_461
*1182 FILLER_21_473
*1183 FILLER_21_485
*1184 FILLER_21_497
*1185 FILLER_21_503
*1186 FILLER_21_505
*1187 FILLER_21_51
*1188 FILLER_21_517
*1189 FILLER_21_529
*1190 FILLER_21_541
*1191 FILLER_21_55
*1192 FILLER_21_553
*1193 FILLER_21_559
*1194 FILLER_21_561
*1195 FILLER_21_57
*1196 FILLER_21_573
*1197 FILLER_21_585
*1198 FILLER_21_597
*1199 FILLER_21_609
*1200 FILLER_21_615
*1201 FILLER_21_617
*1202 FILLER_21_69
*1203 FILLER_21_81
*1204 FILLER_21_93
*1205 FILLER_22_109
*1206 FILLER_22_121
*1207 FILLER_22_133
*1208 FILLER_22_139
*1209 FILLER_22_141
*1210 FILLER_22_153
*1211 FILLER_22_165
*1212 FILLER_22_177
*1213 FILLER_22_189
*1214 FILLER_22_195
*1215 FILLER_22_197
*1216 FILLER_22_20
*1217 FILLER_22_209
*1218 FILLER_22_221
*1219 FILLER_22_233
*1220 FILLER_22_245
*1221 FILLER_22_251
*1222 FILLER_22_253
*1223 FILLER_22_265
*1224 FILLER_22_277
*1225 FILLER_22_289
*1226 FILLER_22_29
*1227 FILLER_22_3
*1228 FILLER_22_301
*1229 FILLER_22_307
*1230 FILLER_22_309
*1231 FILLER_22_321
*1232 FILLER_22_333
*1233 FILLER_22_345
*1234 FILLER_22_357
*1235 FILLER_22_363
*1236 FILLER_22_365
*1237 FILLER_22_377
*1238 FILLER_22_389
*1239 FILLER_22_401
*1240 FILLER_22_41
*1241 FILLER_22_413
*1242 FILLER_22_419
*1243 FILLER_22_421
*1244 FILLER_22_433
*1245 FILLER_22_445
*1246 FILLER_22_457
*1247 FILLER_22_469
*1248 FILLER_22_475
*1249 FILLER_22_477
*1250 FILLER_22_489
*1251 FILLER_22_501
*1252 FILLER_22_513
*1253 FILLER_22_525
*1254 FILLER_22_53
*1255 FILLER_22_531
*1256 FILLER_22_533
*1257 FILLER_22_545
*1258 FILLER_22_557
*1259 FILLER_22_569
*1260 FILLER_22_581
*1261 FILLER_22_587
*1262 FILLER_22_589
*1263 FILLER_22_601
*1264 FILLER_22_613
*1265 FILLER_22_65
*1266 FILLER_22_77
*1267 FILLER_22_8
*1268 FILLER_22_83
*1269 FILLER_22_85
*1270 FILLER_22_97
*1271 FILLER_23_105
*1272 FILLER_23_111
*1273 FILLER_23_113
*1274 FILLER_23_125
*1275 FILLER_23_137
*1276 FILLER_23_149
*1277 FILLER_23_15
*1278 FILLER_23_161
*1279 FILLER_23_167
*1280 FILLER_23_169
*1281 FILLER_23_181
*1282 FILLER_23_193
*1283 FILLER_23_205
*1284 FILLER_23_217
*1285 FILLER_23_223
*1286 FILLER_23_225
*1287 FILLER_23_237
*1288 FILLER_23_249
*1289 FILLER_23_261
*1290 FILLER_23_27
*1291 FILLER_23_273
*1292 FILLER_23_279
*1293 FILLER_23_281
*1294 FILLER_23_293
*1295 FILLER_23_3
*1296 FILLER_23_305
*1297 FILLER_23_317
*1298 FILLER_23_329
*1299 FILLER_23_335
*1300 FILLER_23_337
*1301 FILLER_23_349
*1302 FILLER_23_361
*1303 FILLER_23_373
*1304 FILLER_23_385
*1305 FILLER_23_39
*1306 FILLER_23_391
*1307 FILLER_23_393
*1308 FILLER_23_405
*1309 FILLER_23_417
*1310 FILLER_23_429
*1311 FILLER_23_441
*1312 FILLER_23_447
*1313 FILLER_23_449
*1314 FILLER_23_461
*1315 FILLER_23_473
*1316 FILLER_23_485
*1317 FILLER_23_497
*1318 FILLER_23_503
*1319 FILLER_23_505
*1320 FILLER_23_51
*1321 FILLER_23_517
*1322 FILLER_23_529
*1323 FILLER_23_541
*1324 FILLER_23_55
*1325 FILLER_23_553
*1326 FILLER_23_559
*1327 FILLER_23_561
*1328 FILLER_23_57
*1329 FILLER_23_573
*1330 FILLER_23_585
*1331 FILLER_23_597
*1332 FILLER_23_609
*1333 FILLER_23_615
*1334 FILLER_23_617
*1335 FILLER_23_69
*1336 FILLER_23_81
*1337 FILLER_23_93
*1338 FILLER_24_109
*1339 FILLER_24_121
*1340 FILLER_24_133
*1341 FILLER_24_139
*1342 FILLER_24_141
*1343 FILLER_24_15
*1344 FILLER_24_153
*1345 FILLER_24_165
*1346 FILLER_24_177
*1347 FILLER_24_189
*1348 FILLER_24_195
*1349 FILLER_24_197
*1350 FILLER_24_209
*1351 FILLER_24_221
*1352 FILLER_24_233
*1353 FILLER_24_245
*1354 FILLER_24_251
*1355 FILLER_24_253
*1356 FILLER_24_265
*1357 FILLER_24_27
*1358 FILLER_24_277
*1359 FILLER_24_289
*1360 FILLER_24_29
*1361 FILLER_24_3
*1362 FILLER_24_301
*1363 FILLER_24_307
*1364 FILLER_24_309
*1365 FILLER_24_321
*1366 FILLER_24_333
*1367 FILLER_24_345
*1368 FILLER_24_357
*1369 FILLER_24_363
*1370 FILLER_24_365
*1371 FILLER_24_377
*1372 FILLER_24_389
*1373 FILLER_24_401
*1374 FILLER_24_41
*1375 FILLER_24_413
*1376 FILLER_24_419
*1377 FILLER_24_421
*1378 FILLER_24_433
*1379 FILLER_24_445
*1380 FILLER_24_457
*1381 FILLER_24_469
*1382 FILLER_24_475
*1383 FILLER_24_477
*1384 FILLER_24_489
*1385 FILLER_24_501
*1386 FILLER_24_513
*1387 FILLER_24_525
*1388 FILLER_24_53
*1389 FILLER_24_531
*1390 FILLER_24_533
*1391 FILLER_24_545
*1392 FILLER_24_557
*1393 FILLER_24_569
*1394 FILLER_24_581
*1395 FILLER_24_587
*1396 FILLER_24_589
*1397 FILLER_24_601
*1398 FILLER_24_613
*1399 FILLER_24_619
*1400 FILLER_24_623
*1401 FILLER_24_65
*1402 FILLER_24_77
*1403 FILLER_24_83
*1404 FILLER_24_85
*1405 FILLER_24_97
*1406 FILLER_25_105
*1407 FILLER_25_111
*1408 FILLER_25_113
*1409 FILLER_25_125
*1410 FILLER_25_137
*1411 FILLER_25_149
*1412 FILLER_25_161
*1413 FILLER_25_167
*1414 FILLER_25_169
*1415 FILLER_25_181
*1416 FILLER_25_193
*1417 FILLER_25_20
*1418 FILLER_25_205
*1419 FILLER_25_217
*1420 FILLER_25_223
*1421 FILLER_25_225
*1422 FILLER_25_237
*1423 FILLER_25_249
*1424 FILLER_25_261
*1425 FILLER_25_273
*1426 FILLER_25_279
*1427 FILLER_25_281
*1428 FILLER_25_293
*1429 FILLER_25_3
*1430 FILLER_25_305
*1431 FILLER_25_317
*1432 FILLER_25_32
*1433 FILLER_25_329
*1434 FILLER_25_335
*1435 FILLER_25_337
*1436 FILLER_25_349
*1437 FILLER_25_361
*1438 FILLER_25_373
*1439 FILLER_25_385
*1440 FILLER_25_391
*1441 FILLER_25_393
*1442 FILLER_25_405
*1443 FILLER_25_417
*1444 FILLER_25_429
*1445 FILLER_25_44
*1446 FILLER_25_441
*1447 FILLER_25_447
*1448 FILLER_25_449
*1449 FILLER_25_461
*1450 FILLER_25_473
*1451 FILLER_25_485
*1452 FILLER_25_497
*1453 FILLER_25_503
*1454 FILLER_25_505
*1455 FILLER_25_517
*1456 FILLER_25_529
*1457 FILLER_25_541
*1458 FILLER_25_553
*1459 FILLER_25_559
*1460 FILLER_25_561
*1461 FILLER_25_57
*1462 FILLER_25_573
*1463 FILLER_25_585
*1464 FILLER_25_597
*1465 FILLER_25_609
*1466 FILLER_25_615
*1467 FILLER_25_617
*1468 FILLER_25_69
*1469 FILLER_25_8
*1470 FILLER_25_81
*1471 FILLER_25_93
*1472 FILLER_26_109
*1473 FILLER_26_121
*1474 FILLER_26_133
*1475 FILLER_26_139
*1476 FILLER_26_141
*1477 FILLER_26_15
*1478 FILLER_26_153
*1479 FILLER_26_165
*1480 FILLER_26_177
*1481 FILLER_26_189
*1482 FILLER_26_195
*1483 FILLER_26_197
*1484 FILLER_26_209
*1485 FILLER_26_221
*1486 FILLER_26_233
*1487 FILLER_26_245
*1488 FILLER_26_251
*1489 FILLER_26_253
*1490 FILLER_26_265
*1491 FILLER_26_27
*1492 FILLER_26_277
*1493 FILLER_26_289
*1494 FILLER_26_29
*1495 FILLER_26_3
*1496 FILLER_26_301
*1497 FILLER_26_307
*1498 FILLER_26_309
*1499 FILLER_26_321
*1500 FILLER_26_333
*1501 FILLER_26_345
*1502 FILLER_26_357
*1503 FILLER_26_363
*1504 FILLER_26_365
*1505 FILLER_26_377
*1506 FILLER_26_389
*1507 FILLER_26_401
*1508 FILLER_26_41
*1509 FILLER_26_413
*1510 FILLER_26_419
*1511 FILLER_26_421
*1512 FILLER_26_433
*1513 FILLER_26_445
*1514 FILLER_26_457
*1515 FILLER_26_469
*1516 FILLER_26_475
*1517 FILLER_26_477
*1518 FILLER_26_489
*1519 FILLER_26_501
*1520 FILLER_26_513
*1521 FILLER_26_525
*1522 FILLER_26_53
*1523 FILLER_26_531
*1524 FILLER_26_533
*1525 FILLER_26_545
*1526 FILLER_26_557
*1527 FILLER_26_569
*1528 FILLER_26_581
*1529 FILLER_26_587
*1530 FILLER_26_589
*1531 FILLER_26_601
*1532 FILLER_26_613
*1533 FILLER_26_619
*1534 FILLER_26_623
*1535 FILLER_26_65
*1536 FILLER_26_77
*1537 FILLER_26_83
*1538 FILLER_26_85
*1539 FILLER_26_97
*1540 FILLER_27_105
*1541 FILLER_27_111
*1542 FILLER_27_113
*1543 FILLER_27_125
*1544 FILLER_27_137
*1545 FILLER_27_149
*1546 FILLER_27_15
*1547 FILLER_27_161
*1548 FILLER_27_167
*1549 FILLER_27_169
*1550 FILLER_27_181
*1551 FILLER_27_193
*1552 FILLER_27_205
*1553 FILLER_27_217
*1554 FILLER_27_223
*1555 FILLER_27_225
*1556 FILLER_27_237
*1557 FILLER_27_249
*1558 FILLER_27_261
*1559 FILLER_27_27
*1560 FILLER_27_273
*1561 FILLER_27_279
*1562 FILLER_27_281
*1563 FILLER_27_293
*1564 FILLER_27_3
*1565 FILLER_27_305
*1566 FILLER_27_317
*1567 FILLER_27_329
*1568 FILLER_27_335
*1569 FILLER_27_337
*1570 FILLER_27_349
*1571 FILLER_27_361
*1572 FILLER_27_373
*1573 FILLER_27_385
*1574 FILLER_27_39
*1575 FILLER_27_391
*1576 FILLER_27_393
*1577 FILLER_27_405
*1578 FILLER_27_417
*1579 FILLER_27_429
*1580 FILLER_27_441
*1581 FILLER_27_447
*1582 FILLER_27_449
*1583 FILLER_27_461
*1584 FILLER_27_473
*1585 FILLER_27_485
*1586 FILLER_27_497
*1587 FILLER_27_503
*1588 FILLER_27_505
*1589 FILLER_27_51
*1590 FILLER_27_517