*SPEF "ieee 1481-1999"
*DESIGN "tiny_user_project"
*DATE "11:11:11 Fri 11 11, 1111"
*VENDOR "OpenRCX"
*PROGRAM "Parallel Extraction"
*VERSION "1.0"
*DESIGN_FLOW "NAME_SCOPE LOCAL" "PIN_CAP NONE"
*DIVIDER /
*DELIMITER :
*BUS_DELIMITER []
*T_UNIT 1 NS
*C_UNIT 1 PF
*R_UNIT 1 OHM
*L_UNIT 1 HENRY

*NAME_MAP
*1 io_in[0]
*2 io_in[10]
*3 io_in[11]
*4 io_in[12]
*5 io_in[13]
*6 io_in[14]
*7 io_in[15]
*8 io_in[16]
*9 io_in[17]
*10 io_in[18]
*11 io_in[19]
*12 io_in[1]
*13 io_in[20]
*14 io_in[21]
*15 io_in[22]
*16 io_in[23]
*17 io_in[24]
*18 io_in[25]
*19 io_in[26]
*20 io_in[27]
*21 io_in[28]
*22 io_in[29]
*23 io_in[2]
*24 io_in[30]
*25 io_in[31]
*26 io_in[32]
*27 io_in[33]
*28 io_in[34]
*29 io_in[35]
*30 io_in[36]
*31 io_in[37]
*32 io_in[3]
*33 io_in[4]
*34 io_in[5]
*35 io_in[6]
*36 io_in[7]
*37 io_in[8]
*38 io_in[9]
*39 net39
*40 net49
*41 net50
*42 net51
*43 net52
*44 net53
*45 net54
*46 net55
*47 net56
*48 net57
*49 net58
*50 net40
*51 net59
*52 net60
*53 net61
*54 net62
*55 net63
*56 net64
*57 net65
*58 net66
*59 net67
*60 net68
*61 net41
*62 net69
*63 net70
*64 net71
*65 net72
*66 net73
*67 net74
*68 net75
*69 net76
*70 net42
*71 net43
*72 net44
*73 net45
*74 net46
*75 net47
*76 net48
*77 net1
*78 net11
*79 net12
*80 net13
*81 net14
*82 net15
*83 net16
*84 net17
*85 net18
*86 net19
*87 net20
*88 net2
*89 net21
*90 net22
*91 net23
*92 net24
*93 net25
*94 net26
*95 net27
*96 net28
*97 net29
*98 net30
*99 net3
*100 net31
*101 net32
*102 net33
*103 net34
*104 net35
*105 net36
*106 net37
*107 net38
*108 net4
*109 net5
*110 net6
*111 net7
*112 net8
*113 net9
*114 net10
*115 FILLER_0_109
*116 FILLER_0_113
*117 FILLER_0_125
*118 FILLER_0_137
*119 FILLER_0_141
*120 FILLER_0_153
*121 FILLER_0_165
*122 FILLER_0_169
*123 FILLER_0_181
*124 FILLER_0_193
*125 FILLER_0_197
*126 FILLER_0_20
*127 FILLER_0_209
*128 FILLER_0_221
*129 FILLER_0_225
*130 FILLER_0_29
*131 FILLER_0_3
*132 FILLER_0_41
*133 FILLER_0_53
*134 FILLER_0_57
*135 FILLER_0_69
*136 FILLER_0_8
*137 FILLER_0_81
*138 FILLER_0_85
*139 FILLER_0_97
*140 FILLER_10_109
*141 FILLER_10_121
*142 FILLER_10_133
*143 FILLER_10_139
*144 FILLER_10_141
*145 FILLER_10_153
*146 FILLER_10_165
*147 FILLER_10_177
*148 FILLER_10_189
*149 FILLER_10_195
*150 FILLER_10_197
*151 FILLER_10_20
*152 FILLER_10_209
*153 FILLER_10_221
*154 FILLER_10_29
*155 FILLER_10_3
*156 FILLER_10_41
*157 FILLER_10_53
*158 FILLER_10_65
*159 FILLER_10_77
*160 FILLER_10_8
*161 FILLER_10_83
*162 FILLER_10_85
*163 FILLER_10_97
*164 FILLER_11_105
*165 FILLER_11_111
*166 FILLER_11_113
*167 FILLER_11_125
*168 FILLER_11_137
*169 FILLER_11_149
*170 FILLER_11_15
*171 FILLER_11_161
*172 FILLER_11_167
*173 FILLER_11_169
*174 FILLER_11_181
*175 FILLER_11_193
*176 FILLER_11_205
*177 FILLER_11_217
*178 FILLER_11_223
*179 FILLER_11_225
*180 FILLER_11_231
*181 FILLER_11_27
*182 FILLER_11_3
*183 FILLER_11_39
*184 FILLER_11_51
*185 FILLER_11_55
*186 FILLER_11_57
*187 FILLER_11_69
*188 FILLER_11_81
*189 FILLER_11_93
*190 FILLER_12_109
*191 FILLER_12_121
*192 FILLER_12_133
*193 FILLER_12_139
*194 FILLER_12_141
*195 FILLER_12_15
*196 FILLER_12_153
*197 FILLER_12_165
*198 FILLER_12_177
*199 FILLER_12_189
*200 FILLER_12_195
*201 FILLER_12_197
*202 FILLER_12_209
*203 FILLER_12_221
*204 FILLER_12_227
*205 FILLER_12_231
*206 FILLER_12_27
*207 FILLER_12_29
*208 FILLER_12_3
*209 FILLER_12_41
*210 FILLER_12_53
*211 FILLER_12_65
*212 FILLER_12_77
*213 FILLER_12_83
*214 FILLER_12_85
*215 FILLER_12_97
*216 FILLER_13_105
*217 FILLER_13_111
*218 FILLER_13_113
*219 FILLER_13_125
*220 FILLER_13_137
*221 FILLER_13_149
*222 FILLER_13_161
*223 FILLER_13_167
*224 FILLER_13_169
*225 FILLER_13_181
*226 FILLER_13_193
*227 FILLER_13_20
*228 FILLER_13_205
*229 FILLER_13_217
*230 FILLER_13_223
*231 FILLER_13_225
*232 FILLER_13_3
*233 FILLER_13_32
*234 FILLER_13_44
*235 FILLER_13_57
*236 FILLER_13_69
*237 FILLER_13_8
*238 FILLER_13_81
*239 FILLER_13_93
*240 FILLER_14_109
*241 FILLER_14_121
*242 FILLER_14_133
*243 FILLER_14_139
*244 FILLER_14_141
*245 FILLER_14_153
*246 FILLER_14_165
*247 FILLER_14_177
*248 FILLER_14_189
*249 FILLER_14_195
*250 FILLER_14_197
*251 FILLER_14_20
*252 FILLER_14_209
*253 FILLER_14_221
*254 FILLER_14_227
*255 FILLER_14_231
*256 FILLER_14_29
*257 FILLER_14_3
*258 FILLER_14_41
*259 FILLER_14_53
*260 FILLER_14_65
*261 FILLER_14_77
*262 FILLER_14_8
*263 FILLER_14_83
*264 FILLER_14_85
*265 FILLER_14_97
*266 FILLER_15_105
*267 FILLER_15_111
*268 FILLER_15_113
*269 FILLER_15_125
*270 FILLER_15_137
*271 FILLER_15_149
*272 FILLER_15_15
*273 FILLER_15_161
*274 FILLER_15_167
*275 FILLER_15_169
*276 FILLER_15_181
*277 FILLER_15_193
*278 FILLER_15_205
*279 FILLER_15_217
*280 FILLER_15_223
*281 FILLER_15_225
*282 FILLER_15_231
*283 FILLER_15_27
*284 FILLER_15_3
*285 FILLER_15_39
*286 FILLER_15_51
*287 FILLER_15_55
*288 FILLER_15_57
*289 FILLER_15_69
*290 FILLER_15_81
*291 FILLER_15_93
*292 FILLER_16_109
*293 FILLER_16_121
*294 FILLER_16_133
*295 FILLER_16_139
*296 FILLER_16_141
*297 FILLER_16_15
*298 FILLER_16_153
*299 FILLER_16_165
*300 FILLER_16_177
*301 FILLER_16_189
*302 FILLER_16_195
*303 FILLER_16_197
*304 FILLER_16_209
*305 FILLER_16_221
*306 FILLER_16_27
*307 FILLER_16_29
*308 FILLER_16_3
*309 FILLER_16_41
*310 FILLER_16_53
*311 FILLER_16_65
*312 FILLER_16_77
*313 FILLER_16_83
*314 FILLER_16_85
*315 FILLER_16_97
*316 FILLER_17_105
*317 FILLER_17_111
*318 FILLER_17_113
*319 FILLER_17_125
*320 FILLER_17_137
*321 FILLER_17_149
*322 FILLER_17_161
*323 FILLER_17_167
*324 FILLER_17_169
*325 FILLER_17_181
*326 FILLER_17_193
*327 FILLER_17_20
*328 FILLER_17_205
*329 FILLER_17_217
*330 FILLER_17_223
*331 FILLER_17_225
*332 FILLER_17_231
*333 FILLER_17_3
*334 FILLER_17_32
*335 FILLER_17_44
*336 FILLER_17_57
*337 FILLER_17_69
*338 FILLER_17_8
*339 FILLER_17_81
*340 FILLER_17_93
*341 FILLER_18_109
*342 FILLER_18_121
*343 FILLER_18_133
*344 FILLER_18_139
*345 FILLER_18_141
*346 FILLER_18_153
*347 FILLER_18_165
*348 FILLER_18_177
*349 FILLER_18_189
*350 FILLER_18_195
*351 FILLER_18_197
*352 FILLER_18_20
*353 FILLER_18_209
*354 FILLER_18_221
*355 FILLER_18_227
*356 FILLER_18_231
*357 FILLER_18_29
*358 FILLER_18_3
*359 FILLER_18_41
*360 FILLER_18_53
*361 FILLER_18_65
*362 FILLER_18_77
*363 FILLER_18_8
*364 FILLER_18_83
*365 FILLER_18_85
*366 FILLER_18_97
*367 FILLER_19_105
*368 FILLER_19_111
*369 FILLER_19_113
*370 FILLER_19_125
*371 FILLER_19_137
*372 FILLER_19_149
*373 FILLER_19_15
*374 FILLER_19_161
*375 FILLER_19_167
*376 FILLER_19_169
*377 FILLER_19_181
*378 FILLER_19_193
*379 FILLER_19_205
*380 FILLER_19_217
*381 FILLER_19_223
*382 FILLER_19_225
*383 FILLER_19_27
*384 FILLER_19_3
*385 FILLER_19_39
*386 FILLER_19_51
*387 FILLER_19_55
*388 FILLER_19_57
*389 FILLER_19_69
*390 FILLER_19_81
*391 FILLER_19_93
*392 FILLER_1_105
*393 FILLER_1_111
*394 FILLER_1_113
*395 FILLER_1_125
*396 FILLER_1_137
*397 FILLER_1_149
*398 FILLER_1_161
*399 FILLER_1_167
*400 FILLER_1_169
*401 FILLER_1_181
*402 FILLER_1_193
*403 FILLER_1_20
*404 FILLER_1_205
*405 FILLER_1_217
*406 FILLER_1_223
*407 FILLER_1_225
*408 FILLER_1_3
*409 FILLER_1_32
*410 FILLER_1_44
*411 FILLER_1_57
*412 FILLER_1_69
*413 FILLER_1_8
*414 FILLER_1_81
*415 FILLER_1_93
*416 FILLER_20_109
*417 FILLER_20_121
*418 FILLER_20_133
*419 FILLER_20_139
*420 FILLER_20_141
*421 FILLER_20_153
*422 FILLER_20_165
*423 FILLER_20_177
*424 FILLER_20_189
*425 FILLER_20_195
*426 FILLER_20_197
*427 FILLER_20_20
*428 FILLER_20_209
*429 FILLER_20_221
*430 FILLER_20_227
*431 FILLER_20_231
*432 FILLER_20_29
*433 FILLER_20_3
*434 FILLER_20_41
*435 FILLER_20_53
*436 FILLER_20_65
*437 FILLER_20_77
*438 FILLER_20_8
*439 FILLER_20_83
*440 FILLER_20_85
*441 FILLER_20_97
*442 FILLER_21_105
*443 FILLER_21_111
*444 FILLER_21_113
*445 FILLER_21_125
*446 FILLER_21_137
*447 FILLER_21_149
*448 FILLER_21_15
*449 FILLER_21_161
*450 FILLER_21_167
*451 FILLER_21_169
*452 FILLER_21_181
*453 FILLER_21_193
*454 FILLER_21_205
*455 FILLER_21_217
*456 FILLER_21_223
*457 FILLER_21_225
*458 FILLER_21_231
*459 FILLER_21_27
*460 FILLER_21_3
*461 FILLER_21_39
*462 FILLER_21_51
*463 FILLER_21_55
*464 FILLER_21_57
*465 FILLER_21_69
*466 FILLER_21_81
*467 FILLER_21_93
*468 FILLER_22_109
*469 FILLER_22_121
*470 FILLER_22_133
*471 FILLER_22_139
*472 FILLER_22_141
*473 FILLER_22_153
*474 FILLER_22_165
*475 FILLER_22_177
*476 FILLER_22_189
*477 FILLER_22_195
*478 FILLER_22_197
*479 FILLER_22_20
*480 FILLER_22_209
*481 FILLER_22_221
*482 FILLER_22_29
*483 FILLER_22_3
*484 FILLER_22_41
*485 FILLER_22_53
*486 FILLER_22_65
*487 FILLER_22_77
*488 FILLER_22_8
*489 FILLER_22_83
*490 FILLER_22_85
*491 FILLER_22_97
*492 FILLER_23_105
*493 FILLER_23_111
*494 FILLER_23_113
*495 FILLER_23_125
*496 FILLER_23_137
*497 FILLER_23_149
*498 FILLER_23_15
*499 FILLER_23_161
*500 FILLER_23_167
*501 FILLER_23_169
*502 FILLER_23_181
*503 FILLER_23_193
*504 FILLER_23_205
*505 FILLER_23_217
*506 FILLER_23_223
*507 FILLER_23_225
*508 FILLER_23_231
*509 FILLER_23_27
*510 FILLER_23_3
*511 FILLER_23_39
*512 FILLER_23_51
*513 FILLER_23_55
*514 FILLER_23_57
*515 FILLER_23_69
*516 FILLER_23_81
*517 FILLER_23_93
*518 FILLER_24_109
*519 FILLER_24_121
*520 FILLER_24_133
*521 FILLER_24_139
*522 FILLER_24_141
*523 FILLER_24_153
*524 FILLER_24_165
*525 FILLER_24_177
*526 FILLER_24_189
*527 FILLER_24_195
*528 FILLER_24_197
*529 FILLER_24_20
*530 FILLER_24_209
*531 FILLER_24_221
*532 FILLER_24_227
*533 FILLER_24_231
*534 FILLER_24_29
*535 FILLER_24_3
*536 FILLER_24_41
*537 FILLER_24_53
*538 FILLER_24_65
*539 FILLER_24_77
*540 FILLER_24_8
*541 FILLER_24_83
*542 FILLER_24_85
*543 FILLER_24_97
*544 FILLER_25_105
*545 FILLER_25_111
*546 FILLER_25_113
*547 FILLER_25_125
*548 FILLER_25_137
*549 FILLER_25_149
*550 FILLER_25_161
*551 FILLER_25_167
*552 FILLER_25_169
*553 FILLER_25_181
*554 FILLER_25_193
*555 FILLER_25_20
*556 FILLER_25_205
*557 FILLER_25_217
*558 FILLER_25_223
*559 FILLER_25_225
*560 FILLER_25_3
*561 FILLER_25_32
*562 FILLER_25_44
*563 FILLER_25_57
*564 FILLER_25_69
*565 FILLER_25_8
*566 FILLER_25_81
*567 FILLER_25_93
*568 FILLER_26_109
*569 FILLER_26_121
*570 FILLER_26_133
*571 FILLER_26_139
*572 FILLER_26_141
*573 FILLER_26_15
*574 FILLER_26_153
*575 FILLER_26_165
*576 FILLER_26_177
*577 FILLER_26_189
*578 FILLER_26_195
*579 FILLER_26_197
*580 FILLER_26_209
*581 FILLER_26_221
*582 FILLER_26_227
*583 FILLER_26_231
*584 FILLER_26_27
*585 FILLER_26_29
*586 FILLER_26_3
*587 FILLER_26_41
*588 FILLER_26_53
*589 FILLER_26_65
*590 FILLER_26_77
*591 FILLER_26_83
*592 FILLER_26_85
*593 FILLER_26_97
*594 FILLER_27_105
*595 FILLER_27_111
*596 FILLER_27_113
*597 FILLER_27_125
*598 FILLER_27_137
*599 FILLER_27_149
*600 FILLER_27_15
*601 FILLER_27_161
*602 FILLER_27_167
*603 FILLER_27_169
*604 FILLER_27_181
*605 FILLER_27_193
*606 FILLER_27_205
*607 FILLER_27_217
*608 FILLER_27_223
*609 FILLER_27_225
*610 FILLER_27_231
*611 FILLER_27_27
*612 FILLER_27_3
*613 FILLER_27_39
*614 FILLER_27_51
*615 FILLER_27_55
*616 FILLER_27_57
*617 FILLER_27_69
*618 FILLER_27_81
*619 FILLER_27_93
*620 FILLER_28_109
*621 FILLER_28_121
*622 FILLER_28_133
*623 FILLER_28_139
*624 FILLER_28_141
*625 FILLER_28_153
*626 FILLER_28_165
*627 FILLER_28_177
*628 FILLER_28_189
*629 FILLER_28_195
*630 FILLER_28_197
*631 FILLER_28_20
*632 FILLER_28_209
*633 FILLER_28_221
*634 FILLER_28_29
*635 FILLER_28_3
*636 FILLER_28_41
*637 FILLER_28_53
*638 FILLER_28_65
*639 FILLER_28_77
*640 FILLER_28_8
*641 FILLER_28_83
*642 FILLER_28_85
*643 FILLER_28_97
*644 FILLER_29_105
*645 FILLER_29_111
*646 FILLER_29_113
*647 FILLER_29_125
*648 FILLER_29_137
*649 FILLER_29_149
*650 FILLER_29_161
*651 FILLER_29_167
*652 FILLER_29_169
*653 FILLER_29_181
*654 FILLER_29_193
*655 FILLER_29_20
*656 FILLER_29_205
*657 FILLER_29_217
*658 FILLER_29_223
*659 FILLER_29_225
*660 FILLER_29_231
*661 FILLER_29_3
*662 FILLER_29_32
*663 FILLER_29_44
*664 FILLER_29_57
*665 FILLER_29_69
*666 FILLER_29_8
*667 FILLER_29_81
*668 FILLER_29_93
*669 FILLER_2_109
*670 FILLER_2_121
*671 FILLER_2_133
*672 FILLER_2_139
*673 FILLER_2_141
*674 FILLER_2_153
*675 FILLER_2_165
*676 FILLER_2_177
*677 FILLER_2_189
*678 FILLER_2_195
*679 FILLER_2_197
*680 FILLER_2_20
*681 FILLER_2_209
*682 FILLER_2_221
*683 FILLER_2_227
*684 FILLER_2_231
*685 FILLER_2_29
*686 FILLER_2_3
*687 FILLER_2_41
*688 FILLER_2_53
*689 FILLER_2_65
*690 FILLER_2_77
*691 FILLER_2_8
*692 FILLER_2_83
*693 FILLER_2_85
*694 FILLER_2_97
*695 FILLER_30_109
*696 FILLER_30_121
*697 FILLER_30_133
*698 FILLER_30_139
*699 FILLER_30_141
*700 FILLER_30_15
*701 FILLER_30_153
*702 FILLER_30_165
*703 FILLER_30_177
*704 FILLER_30_189
*705 FILLER_30_195
*706 FILLER_30_197
*707 FILLER_30_209
*708 FILLER_30_221
*709 FILLER_30_227
*710 FILLER_30_231
*711 FILLER_30_27
*712 FILLER_30_29
*713 FILLER_30_3
*714 FILLER_30_41
*715 FILLER_30_53
*716 FILLER_30_65
*717 FILLER_30_77
*718 FILLER_30_83
*719 FILLER_30_85
*720 FILLER_30_97
*721 FILLER_31_105
*722 FILLER_31_111
*723 FILLER_31_113
*724 FILLER_31_125
*725 FILLER_31_137
*726 FILLER_31_149
*727 FILLER_31_15
*728 FILLER_31_161
*729 FILLER_31_167
*730 FILLER_31_169
*731 FILLER_31_181
*732 FILLER_31_193
*733 FILLER_31_205
*734 FILLER_31_217
*735 FILLER_31_223
*736 FILLER_31_225
*737 FILLER_31_27
*738 FILLER_31_3
*739 FILLER_31_39
*740 FILLER_31_51
*741 FILLER_31_55
*742 FILLER_31_57
*743 FILLER_31_69
*744 FILLER_31_81
*745 FILLER_31_93
*746 FILLER_32_109
*747 FILLER_32_121
*748 FILLER_32_133
*749 FILLER_32_139
*750 FILLER_32_141
*751 FILLER_32_153
*752 FILLER_32_165
*753 FILLER_32_177
*754 FILLER_32_189
*755 FILLER_32_195
*756 FILLER_32_197
*757 FILLER_32_20
*758 FILLER_32_209
*759 FILLER_32_221
*760 FILLER_32_227
*761 FILLER_32_231
*762 FILLER_32_29
*763 FILLER_32_3
*764 FILLER_32_41
*765 FILLER_32_53
*766 FILLER_32_65
*767 FILLER_32_77
*768 FILLER_32_8
*769 FILLER_32_83
*770 FILLER_32_85
*771 FILLER_32_97
*772 FILLER_33_105
*773 FILLER_33_111
*774 FILLER_33_113
*775 FILLER_33_125
*776 FILLER_33_137
*777 FILLER_33_149
*778 FILLER_33_161
*779 FILLER_33_167
*780 FILLER_33_169
*781 FILLER_33_181
*782 FILLER_33_193
*783 FILLER_33_20
*784 FILLER_33_205
*785 FILLER_33_217
*786 FILLER_33_223
*787 FILLER_33_225
*788 FILLER_33_231
*789 FILLER_33_3
*790 FILLER_33_32
*791 FILLER_33_44
*792 FILLER_33_57
*793 FILLER_33_69
*794 FILLER_33_8
*795 FILLER_33_81
*796 FILLER_33_93
*797 FILLER_34_109
*798 FILLER_34_121
*799 FILLER_34_133
*800 FILLER_34_139
*801 FILLER_34_141
*802 FILLER_34_15
*803 FILLER_34_153
*804 FILLER_34_165
*805 FILLER_34_177
*806 FILLER_34_189
*807 FILLER_34_195
*808 FILLER_34_197
*809 FILLER_34_209
*810 FILLER_34_221
*811 FILLER_34_27
*812 FILLER_34_29
*813 FILLER_34_3
*814 FILLER_34_41
*815 FILLER_34_53
*816 FILLER_34_65
*817 FILLER_34_77
*818 FILLER_34_83
*819 FILLER_34_85
*820 FILLER_34_97
*821 FILLER_35_105
*822 FILLER_35_111
*823 FILLER_35_113
*824 FILLER_35_125
*825 FILLER_35_137
*826 FILLER_35_149
*827 FILLER_35_161
*828 FILLER_35_167
*829 FILLER_35_169
*830 FILLER_35_181
*831 FILLER_35_193
*832 FILLER_35_20
*833 FILLER_35_205
*834 FILLER_35_217
*835 FILLER_35_223
*836 FILLER_35_225
*837 FILLER_35_231
*838 FILLER_35_3
*839 FILLER_35_32
*840 FILLER_35_44
*841 FILLER_35_57
*842 FILLER_35_69
*843 FILLER_35_8
*844 FILLER_35_81
*845 FILLER_35_93
*846 FILLER_36_109
*847 FILLER_36_121
*848 FILLER_36_133
*849 FILLER_36_139
*850 FILLER_36_141
*851 FILLER_36_15
*852 FILLER_36_153
*853 FILLER_36_165
*854 FILLER_36_177
*855 FILLER_36_189
*856 FILLER_36_195
*857 FILLER_36_197
*858 FILLER_36_209
*859 FILLER_36_221
*860 FILLER_36_227
*861 FILLER_36_231
*862 FILLER_36_27
*863 FILLER_36_29
*864 FILLER_36_3
*865 FILLER_36_41
*866 FILLER_36_53
*867 FILLER_36_65
*868 FILLER_36_77
*869 FILLER_36_83
*870 FILLER_36_85
*871 FILLER_36_97
*872 FILLER_37_105
*873 FILLER_37_111
*874 FILLER_37_113
*875 FILLER_37_125
*876 FILLER_37_137
*877 FILLER_37_149
*878 FILLER_37_161
*879 FILLER_37_167
*880 FILLER_37_169
*881 FILLER_37_181
*882 FILLER_37_193
*883 FILLER_37_20
*884 FILLER_37_205
*885 FILLER_37_217
*886 FILLER_37_223
*887 FILLER_37_225
*888 FILLER_37_3
*889 FILLER_37_32
*890 FILLER_37_44
*891 FILLER_37_57
*892 FILLER_37_69
*893 FILLER_37_8
*894 FILLER_37_81
*895 FILLER_37_93
*896 FILLER_38_109
*897 FILLER_38_121
*898 FILLER_38_133
*899 FILLER_38_139
*900 FILLER_38_141
*901 FILLER_38_15
*902 FILLER_38_153
*903 FILLER_38_165
*904 FILLER_38_177
*905 FILLER_38_189
*906 FILLER_38_195
*907 FILLER_38_197
*908 FILLER_38_209
*909 FILLER_38_221
*910 FILLER_38_227
*911 FILLER_38_231
*912 FILLER_38_27
*913 FILLER_38_29
*914 FILLER_38_3
*915 FILLER_38_41
*916 FILLER_38_53
*917 FILLER_38_65
*918 FILLER_38_77
*919 FILLER_38_83
*920 FILLER_38_85
*921 FILLER_38_97
*922 FILLER_39_105
*923 FILLER_39_111
*924 FILLER_39_113
*925 FILLER_39_125
*926 FILLER_39_137
*927 FILLER_39_149
*928 FILLER_39_161
*929 FILLER_39_167
*930 FILLER_39_169
*931 FILLER_39_181
*932 FILLER_39_193
*933 FILLER_39_20
*934 FILLER_39_205
*935 FILLER_39_217
*936 FILLER_39_223
*937 FILLER_39_225
*938 FILLER_39_231
*939 FILLER_39_3
*940 FILLER_39_32
*941 FILLER_39_44
*942 FILLER_39_57
*943 FILLER_39_69
*944 FILLER_39_8
*945 FILLER_39_81
*946 FILLER_39_93
*947 FILLER_3_105
*948 FILLER_3_111
*949 FILLER_3_113
*950 FILLER_3_125
*951 FILLER_3_137
*952 FILLER_3_149
*953 FILLER_3_161
*954 FILLER_3_167
*955 FILLER_3_169
*956 FILLER_3_181
*957 FILLER_3_193
*958 FILLER_3_20
*959 FILLER_3_205
*960 FILLER_3_217
*961 FILLER_3_223
*962 FILLER_3_225
*963 FILLER_3_231
*964 FILLER_3_3
*965 FILLER_3_32
*966 FILLER_3_44
*967 FILLER_3_57
*968 FILLER_3_69
*969 FILLER_3_8
*970 FILLER_3_81
*971 FILLER_3_93
*972 FILLER_40_109
*973 FILLER_40_121
*974 FILLER_40_133
*975 FILLER_40_139
*976 FILLER_40_141
*977 FILLER_40_153
*978 FILLER_40_165
*979 FILLER_40_177
*980 FILLER_40_189
*981 FILLER_40_195
*982 FILLER_40_197
*983 FILLER_40_20
*984 FILLER_40_209
*985 FILLER_40_221
*986 FILLER_40_29
*987 FILLER_40_3
*988 FILLER_40_41
*989 FILLER_40_53
*990 FILLER_40_65
*991 FILLER_40_77
*992 FILLER_40_8
*993 FILLER_40_83
*994 FILLER_40_85
*995 FILLER_40_97
*996 FILLER_41_105
*997 FILLER_41_111
*998 FILLER_41_113
*999 FILLER_41_125
*1000 FILLER_41_137
*1001 FILLER_41_149
*1002 FILLER_41_15
*1003 FILLER_41_161
*1004 FILLER_41_167
*1005 FILLER_41_169
*1006 FILLER_41_181
*1007 FILLER_41_193
*1008 FILLER_41_205
*1009 FILLER_41_217
*1010 FILLER_41_223
*1011 FILLER_41_225
*1012 FILLER_41_231
*1013 FILLER_41_27
*1014 FILLER_41_3
*1015 FILLER_41_39
*1016 FILLER_41_51
*1017 FILLER_41_55
*1018 FILLER_41_57
*1019 FILLER_41_69
*1020 FILLER_41_81
*1021 FILLER_41_93
*1022 FILLER_42_109
*1023 FILLER_42_121
*1024 FILLER_42_133
*1025 FILLER_42_139
*1026 FILLER_42_141
*1027 FILLER_42_15
*1028 FILLER_42_153
*1029 FILLER_42_165
*1030 FILLER_42_177
*1031 FILLER_42_189
*1032 FILLER_42_195
*1033 FILLER_42_197
*1034 FILLER_42_209
*1035 FILLER_42_221
*1036 FILLER_42_227
*1037 FILLER_42_231
*1038 FILLER_42_27
*1039 FILLER_42_29
*1040 FILLER_42_3
*1041 FILLER_42_41
*1042 FILLER_42_53
*1043 FILLER_42_65
*1044 FILLER_42_77
*1045 FILLER_42_83
*1046 FILLER_42_85
*1047 FILLER_42_97
*1048 FILLER_43_105
*1049 FILLER_43_111
*1050 FILLER_43_113
*1051 FILLER_43_125
*1052 FILLER_43_137
*1053 FILLER_43_149
*1054 FILLER_43_161
*1055 FILLER_43_167
*1056 FILLER_43_169
*1057 FILLER_43_181
*1058 FILLER_43_193
*1059 FILLER_43_20
*1060 FILLER_43_205
*1061 FILLER_43_217
*1062 FILLER_43_223
*1063 FILLER_43_225
*1064 FILLER_43_3
*1065 FILLER_43_32
*1066 FILLER_43_44
*1067 FILLER_43_57
*1068 FILLER_43_69
*1069 FILLER_43_8
*1070 FILLER_43_81
*1071 FILLER_43_93
*1072 FILLER_44_109
*1073 FILLER_44_121
*1074 FILLER_44_133
*1075 FILLER_44_139
*1076 FILLER_44_141
*1077 FILLER_44_153
*1078 FILLER_44_165
*1079 FILLER_44_177
*1080 FILLER_44_189
*1081 FILLER_44_195
*1082 FILLER_44_197
*1083 FILLER_44_20
*1084 FILLER_44_209
*1085 FILLER_44_221
*1086 FILLER_44_227
*1087 FILLER_44_231
*1088 FILLER_44_29
*1089 FILLER_44_3
*1090 FILLER_44_41
*1091 FILLER_44_53
*1092 FILLER_44_65
*1093 FILLER_44_77
*1094 FILLER_44_8
*1095 FILLER_44_83
*1096 FILLER_44_85
*1097 FILLER_44_97
*1098 FILLER_45_105
*1099 FILLER_45_111
*1100 FILLER_45_113
*1101 FILLER_45_125
*1102 FILLER_45_137
*1103 FILLER_45_149
*1104 FILLER_45_15
*1105 FILLER_45_161
*1106 FILLER_45_167
*1107 FILLER_45_169
*1108 FILLER_45_181
*1109 FILLER_45_193
*1110 FILLER_45_205
*1111 FILLER_45_217
*1112 FILLER_45_223
*1113 FILLER_45_225
*1114 FILLER_45_231
*1115 FILLER_45_27
*1116 FILLER_45_3
*1117 FILLER_45_39
*1118 FILLER_45_51
*1119 FILLER_45_55
*1120 FILLER_45_57
*1121 FILLER_45_69
*1122 FILLER_45_8
*1123 FILLER_45_81
*1124 FILLER_45_93
*1125 FILLER_46_110
*1126 FILLER_46_113
*1127 FILLER_46_122
*1128 FILLER_46_134
*1129 FILLER_46_14
*1130 FILLER_46_141
*1131 FILLER_46_146
*1132 FILLER_46_153
*1133 FILLER_46_165
*1134 FILLER_46_169
*1135 FILLER_46_174
*1136 FILLER_46_181
*1137 FILLER_46_189
*1138 FILLER_46_194
*1139 FILLER_46_197
*1140 FILLER_46_203
*1141 FILLER_46_21
*1142 FILLER_46_215
*1143 FILLER_46_221
*1144 FILLER_46_225
*1145 FILLER_46_230
*1146 FILLER_46_27
*1147 FILLER_46_29
*1148 FILLER_46_3
*1149 FILLER_46_34
*1150 FILLER_46_41
*1151 FILLER_46_49
*1152 FILLER_46_54
*1153 FILLER_46_57
*1154 FILLER_46_68
*1155 FILLER_46_76
*1156 FILLER_46_82
*1157 FILLER_46_85
*1158 FILLER_46_91
*1159 FILLER_46_95
*1160 FILLER_4_109
*1161 FILLER_4_121
*1162 FILLER_4_133
*1163 FILLER_4_139
*1164 FILLER_4_141
*1165 FILLER_4_15
*1166 FILLER_4_153
*1167 FILLER_4_165
*1168 FILLER_4_177
*1169 FILLER_4_189
*1170 FILLER_4_195
*1171 FILLER_4_197
*1172 FILLER_4_209
*1173 FILLER_4_221
*1174 FILLER_4_27
*1175 FILLER_4_29
*1176 FILLER_4_3
*1177 FILLER_4_41
*1178 FILLER_4_53
*1179 FILLER_4_65
*1180 FILLER_4_77
*1181 FILLER_4_83
*1182 FILLER_4_85
*1183 FILLER_4_97
*1184 FILLER_5_105
*1185 FILLER_5_111
*1186 FILLER_5_113
*1187 FILLER_5_125
*1188 FILLER_5_137
*1189 FILLER_5_149
*1190 FILLER_5_161
*1191 FILLER_5_167
*1192 FILLER_5_169
*1193 FILLER_5_181
*1194 FILLER_5_193
*1195 FILLER_5_20
*1196 FILLER_5_205
*1197 FILLER_5_217
*1198 FILLER_5_223
*1199 FILLER_5_225
*1200 FILLER_5_231
*1201 FILLER_5_3
*1202 FILLER_5_32
*1203 FILLER_5_44
*1204 FILLER_5_57
*1205 FILLER_5_69
*1206 FILLER_5_8
*1207 FILLER_5_81
*1208 FILLER_5_93
*1209 FILLER_6_109
*1210 FILLER_6_121
*1211 FILLER_6_133
*1212 FILLER_6_139
*1213 FILLER_6_141
*1214 FILLER_6_15
*1215 FILLER_6_153
*1216 FILLER_6_165
*1217 FILLER_6_177
*1218 FILLER_6_189
*1219 FILLER_6_195
*1220 FILLER_6_197
*1221 FILLER_6_209
*1222 FILLER_6_221
*1223 FILLER_6_227
*1224 FILLER_6_231
*1225 FILLER_6_27
*1226 FILLER_6_29
*1227 FILLER_6_3
*1228 FILLER_6_41
*1229 FILLER_6_53
*1230 FILLER_6_65
*1231 FILLER_6_77
*1232 FILLER_6_83
*1233 FILLER_6_85
*1234 FILLER_6_97
*1235 FILLER_7_105
*1236 FILLER_7_111
*1237 FILLER_7_113
*1238 FILLER_7_125
*1239 FILLER_7_137
*1240 FILLER_7_149
*1241 FILLER_7_161
*1242 FILLER_7_167
*1243 FILLER_7_169
*1244 FILLER_7_181
*1245 FILLER_7_193
*1246 FILLER_7_20
*1247 FILLER_7_205
*1248 FILLER_7_217
*1249 FILLER_7_223
*1250 FILLER_7_225
*1251 FILLER_7_3
*1252 FILLER_7_32
*1253 FILLER_7_44
*1254 FILLER_7_57
*1255 FILLER_7_69
*1256 FILLER_7_8
*1257 FILLER_7_81
*1258 FILLER_7_93
*1259 FILLER_8_109
*1260 FILLER_8_121
*1261 FILLER_8_133
*1262 FILLER_8_139
*1263 FILLER_8_141
*1264 FILLER_8_15
*1265 FILLER_8_153
*1266 FILLER_8_165
*1267 FILLER_8_177
*1268 FILLER_8_189
*1269 FILLER_8_195
*1270 FILLER_8_197
*1271 FILLER_8_209
*1272 FILLER_8_221
*1273 FILLER_8_227
*1274 FILLER_8_231
*1275 FILLER_8_27
*1276 FILLER_8_29
*1277 FILLER_8_3
*1278 FILLER_8_41
*1279 FILLER_8_53
*1280 FILLER_8_65
*1281 FILLER_8_77
*1282 FILLER_8_83
*1283 FILLER_8_85
*1284 FILLER_8_97
*1285 FILLER_9_105
*1286 FILLER_9_111
*1287 FILLER_9_113
*1288 FILLER_9_125
*1289 FILLER_9_137
*1290 FILLER_9_149
*1291 FILLER_9_161
*1292 FILLER_9_167
*1293 FILLER_9_169
*1294 FILLER_9_181
*1295 FILLER_9_193
*1296 FILLER_9_20
*1297 FILLER_9_205
*1298 FILLER_9_217
*1299 FILLER_9_223
*1300 FILLER_9_225
*1301 FILLER_9_231
*1302 FILLER_9_3
*1303 FILLER_9_32
*1304 FILLER_9_44
*1305 FILLER_9_57
*1306 FILLER_9_69
*1307 FILLER_9_8
*1308 FILLER_9_81
*1309 FILLER_9_93
*1310 PHY_0
*1311 PHY_1
*1312 PHY_10
*1313 PHY_11
*1314 PHY_12
*1315 PHY_13
*1316 PHY_14
*1317 PHY_15
*1318 PHY_16
*1319 PHY_17
*1320 PHY_18
*1321 PHY_19
*1322 PHY_2
*1323 PHY_20
*1324 PHY_21
*1325 PHY_22
*1326 PHY_23
*1327 PHY_24
*1328 PHY_25
*1329 PHY_26
*1330 PHY_27
*1331 PHY_28
*1332 PHY_29
*1333 PHY_3
*1334 PHY_30
*1335 PHY_31
*1336 PHY_32
*1337 PHY_33
*1338 PHY_34
*1339 PHY_35
*1340 PHY_36
*1341 PHY_37
*1342 PHY_38
*1343 PHY_39
*1344 PHY_4
*1345 PHY_40
*1346 PHY_41
*1347 PHY_42
*1348 PHY_43
*1349 PHY_44
*1350 PHY_45
*1351 PHY_46
*1352 PHY_47
*1353 PHY_48
*1354 PHY_49
*1355 PHY_5
*1356 PHY_50
*1357 PHY_51
*1358 PHY_52
*1359 PHY_53
*1360 PHY_54
*1361 PHY_55
*1362 PHY_56
*1363 PHY_57
*1364 PHY_58
*1365 PHY_59
*1366 PHY_6
*1367 PHY_60
*1368 PHY_61
*1369 PHY_62
*1370 PHY_63
*1371 PHY_64
*1372 PHY_65
*1373 PHY_66
*1374 PHY_67
*1375 PHY_68
*1376 PHY_69
*1377 PHY_7
*1378 PHY_70
*1379 PHY_71
*1380 PHY_72
*1381 PHY_73
*1382 PHY_74
*1383 PHY_75
*1384 PHY_76
*1385 PHY_77
*1386 PHY_78
*1387 PHY_79
*1388 PHY_8
*1389 PHY_80
*1390 PHY_81
*1391 PHY_82
*1392 PHY_83
*1393 PHY_84
*1394 PHY_85
*1395 PHY_86
*1396 PHY_87
*1397 PHY_88
*1398 PHY_89
*1399 PHY_9
*1400 PHY_90
*1401 PHY_91
*1402 PHY_92
*1403 PHY_93
*1404 TAP_100
*1405 TAP_101
*1406 TAP_102
*1407 TAP_103
*1408 TAP_104
*1409 TAP_105
*1410 TAP_106
*1411 TAP_107
*1412 TAP_108
*1413 TAP_109
*1414 TAP_110
*1415 TAP_111
*1416 TAP_112
*1417 TAP_113
*1418 TAP_114
*1419 TAP_115
*1420 TAP_116
*1421 TAP_117
*1422 TAP_118
*1423 TAP_119
*1424 TAP_120
*1425 TAP_121
*1426 TAP_122
*1427 TAP_123
*1428 TAP_124
*1429 TAP_125
*1430 TAP_126
*1431 TAP_127
*1432 TAP_128
*1433 TAP_129
*1434 TAP_130
*1435 TAP_131
*1436 TAP_132
*1437 TAP_133
*1438 TAP_134
*1439 TAP_135
*1440 TAP_136
*1441 TAP_137
*1442 TAP_138
*1443 TAP_139
*1444 TAP_140
*1445 TAP_141
*1446 TAP_142
*1447 TAP_143
*1448 TAP_144
*1449 TAP_145
*1450 TAP_146
*1451 TAP_147
*1452 TAP_148
*1453 TAP_149
*1454 TAP_150
*1455 TAP_151
*1456 TAP_152
*1457 TAP_153
*1458 TAP_154
*1459 TAP_155
*1460 TAP_156
*1461 TAP_157
*1462 TAP_158
*1463 TAP_159
*1464 TAP_160
*1465 TAP_161
*1466 TAP_162
*1467 TAP_163
*1468 TAP_164
*1469 TAP_165
*1470 TAP_166
*1471 TAP_167
*1472 TAP_168
*1473 TAP_169
*1474 TAP_170
*1475 TAP_171
*1476 TAP_172
*1477 TAP_173
*1478 TAP_174
*1479 TAP_175
*1480 TAP_176
*1481 TAP_177
*1482 TAP_178
*1483 TAP_179
*1484 TAP_180
*1485 TAP_181
*1486 TAP_182
*1487 TAP_183
*1488 TAP_184
*1489 TAP_185
*1490 TAP_186
*1491 TAP_187
*1492 TAP_188
*1493 TAP_189
*1494 TAP_190
*1495 TAP_191
*1496 TAP_192
*1497 TAP_193
*1498 TAP_194
*1499 TAP_195
*1500 TAP_196
*1501 TAP_197
*1502 TAP_198
*1503 TAP_199
*1504 TAP_200
*1505 TAP_201
*1506 TAP_202
*1507 TAP_203
*1508 TAP_204
*1509 TAP_205
*1510 TAP_206
*1511 TAP_207
*1512 TAP_208
*1513 TAP_209
*1514 TAP_210
*1515 TAP_211
*1516 TAP_212
*1517 TAP_213
*1518 TAP_214
*1519 TAP_215
*1520 TAP_216
*1521 TAP_217
*1522 TAP_218
*1523 TAP_219
*1524 TAP_220
*1525 TAP_221
*1526 TAP_222
*1527 TAP_223
*1528 TAP_224
*1529 TAP_225
*1530 TAP_226
*1531 TAP_227
*1532 TAP_228
*1533 TAP_229
*1534 TAP_230
*1535 TAP_231
*1536 TAP_232
*1537 TAP_233
*1538 TAP_234
*1539 TAP_235
*1540 TAP_236
*1541 TAP_237
*1542 TAP_238
*1543 TAP_239
*1544 TAP_240
*1545 TAP_241
*1546 TAP_242
*1547 TAP_243
*1548 TAP_244
*1549 TAP_245
*1550 TAP_246
*1551 TAP_247
*1552 TAP_248
*1553 TAP_249
*1554 TAP_250
*1555 TAP_251
*1556 TAP_252
*1557 TAP_253
*1558 TAP_254
*1559 TAP_255
*1560 TAP_256
*1561 TAP_257
*1562 TAP_258
*1563 TAP_259
*1564 TAP_260
*1565 TAP_261
*1566 TAP_262
*1567 TAP_263
*1568 TAP_264
*1569 TAP_265
*1570 TAP_266
*1571 TAP_267
*1572 TAP_268
*1573 TAP_269
*1574 TAP_270
*1575 TAP_271
*1576 TAP_272
*1577 TAP_273
*1578 TAP_274
*1579 TAP_275
*1580 TAP_276
*1581 TAP_277
*1582 TAP_278
*1583 TAP_279
*1584 TAP_280
*1585 TAP_281
*1586 TAP_282
*1587 TAP_283
*1588 TAP_284
*1589 TAP_285
*1590 TAP_286
*1591 TAP_287
*1592 TAP_288
*1593 TAP_289
*1594 TAP_94
*1595 TAP_95
*1596 TAP_96
*1597 TAP_97
*1598 TAP_98
*1599 TAP_99
*1600 tiny_user_project_1
*1601 tiny_user_project_10
*1602 tiny_user_project_11
*1603 tiny_user_project_12
*1604 tiny_user_project_13
*1605 tiny_user_project_14
*1606 tiny_user_project_15
*1607 tiny_user_project_16
*1608 tiny_user_project_17
*1609 tiny_user_project_18
*1610 tiny_user_project_19
*1611 tiny_user_project_2
*1612 tiny_user_project_20
*1613 tiny_user_project_21
*1614 tiny_user_project_22
*1615 tiny_user_project_23
*1616 tiny_user_project_24
*1617 tiny_user_project_25
*1618 tiny_user_project_26
*1619 tiny_user_project_27
*1620 tiny_user_project_28
*1621 tiny_user_project_29
*1622 tiny_user_project_3
*1623 tiny_user_project_30
*1624 tiny_user_project_31
*1625 tiny_user_project_32
*1626 tiny_user_project_33
*1627 tiny_user_project_34
*1628 tiny_user_project_35
*1629 tiny_user_project_36
*1630 tiny_user_project_37
*1631 tiny_user_project_38
*1632 tiny_user_project_39
*1633 tiny_user_project_4
*1634 tiny_user_project_40
*1635 tiny_user_project_41
*1636 tiny_user_project_42
*1637 tiny_user_project_43
*1638 tiny_user_project_44
*1639 tiny_user_project_45
*1640 tiny_user_project_46
*1641 tiny_user_project_47
*1642 tiny_user_project_48
*1643 tiny_user_project_49
*1644 tiny_user_project_5
*1645 tiny_user_project_50
*1646 tiny_user_project_51
*1647 tiny_user_project_52
*1648 tiny_user_project_53
*1649 tiny_user_project_54
*1650 tiny_user_project_55
*1651 tiny_user_project_56
*1652 tiny_user_project_57
*1653 tiny_user_project_58
*1654 tiny_user_project_59
*1655 tiny_user_project_6
*1656 tiny_user_project_60
*1657 tiny_user_project_61
*1658 tiny_user_project_62
*1659 tiny_user_project_63
*1660 tiny_user_project_64
*1661 tiny_user_project_65
*1662 tiny_user_project_66
*1663 tiny_user_project_67
*1664 tiny_user_project_68
*1665 tiny_user_project_69
*1666 tiny_user_project_7
*1667 tiny_user_project_70
*1668 tiny_user_project_71
*1669 tiny_user_project_72
*1670 tiny_user_project_73
*1671 tiny_user_project_74
*1672 tiny_user_project_75
*1673 tiny_user_project_76
*1674 tiny_user_project_8
*1675 tiny_user_project_9

*PORTS
io_in[0] I
io_in[10] I
io_in[11] I
io_in[12] I
io_in[13] I
io_in[14] I
io_in[15] I
io_in[16] I
io_in[17] I
io_in[18] I
io_in[19] I
io_in[1] I
io_in[20] I
io_in[21] I
io_in[22] I
io_in[23] I
io_in[24] I