*SPEF "ieee 1481-1999"
*DESIGN "tiny_user_project"
*DATE "11:11:11 Fri 11 11, 1111"
*VENDOR "OpenRCX"
*PROGRAM "Parallel Extraction"
*VERSION "1.0"
*DESIGN_FLOW "NAME_SCOPE LOCAL" "PIN_CAP NONE"
*DIVIDER /
*DELIMITER :
*BUS_DELIMITER []
*T_UNIT 1 NS
*C_UNIT 1 PF
*R_UNIT 1 OHM
*L_UNIT 1 HENRY

*NAME_MAP
*1 io_in[0]
*2 io_in[10]
*3 io_in[11]
*4 io_in[12]
*5 io_in[13]
*6 io_in[14]
*7 io_in[15]
*8 io_in[16]
*9 io_in[17]
*10 io_in[18]
*11 io_in[19]
*12 io_in[1]
*13 io_in[20]
*14 io_in[21]
*15 io_in[22]
*16 io_in[23]
*17 io_in[24]
*18 io_in[25]
*19 io_in[26]
*20 io_in[27]
*21 io_in[28]
*22 io_in[29]
*23 io_in[2]
*24 io_in[30]
*25 io_in[31]
*26 io_in[32]
*27 io_in[33]
*28 io_in[34]
*29 io_in[35]
*30 io_in[36]
*31 io_in[37]
*32 io_in[3]
*33 io_in[4]
*34 io_in[5]
*35 io_in[6]
*36 io_in[7]
*37 io_in[8]
*38 io_in[9]
*39 net33
*40 net43
*41 net44
*42 net45
*43 net46
*44 net47
*45 net48
*46 net49
*47 net50
*48 net51
*49 net52
*50 net34
*51 net53
*52 net54
*53 net55
*54 net56
*55 net57
*56 net58
*57 net59
*58 net60
*59 net61
*60 net62
*61 net35
*62 net63
*63 net64
*64 net65
*65 net66
*66 net67
*67 net68
*68 net69
*69 net70
*70 net36
*71 net37
*72 net38
*73 net39
*74 net40
*75 net41
*76 net42
*77 net71
*78 net81
*79 net82
*80 net83
*81 net84
*82 net85
*83 net86
*84 net87
*85 net88
*86 net89
*87 net90
*88 net72
*89 net91
*90 net92
*91 net93
*92 net94
*93 net95
*94 net96
*95 net97
*96 net98
*97 net99
*98 net100
*99 net73
*100 net101
*101 net102
*102 net103
*103 net104
*104 net105
*105 io_out[35]
*106 net106
*107 net107
*108 net74
*109 net75
*110 net76
*111 net77
*112 net78
*113 net79
*114 net80
*117 _000_
*118 _001_
*119 _002_
*120 _003_
*121 _004_
*122 _005_
*123 _006_
*124 _007_
*125 _008_
*126 _009_
*127 _010_
*128 _011_
*129 _012_
*130 _013_
*131 _014_
*132 _015_
*133 _016_
*134 _017_
*135 _018_
*136 _019_
*137 _020_
*138 _021_
*139 _022_
*140 _023_
*141 _024_
*142 _025_
*143 _026_
*144 _027_
*145 _028_
*146 _029_
*147 _030_
*148 _031_
*149 _032_
*150 _033_
*151 _034_
*152 _035_
*153 _036_
*154 _037_
*155 _038_
*156 _039_
*157 _040_
*158 _041_
*159 _042_
*160 _043_
*161 _044_
*162 _045_
*163 _046_
*164 _047_
*165 _048_
*166 _049_
*167 _050_
*168 _051_
*169 _052_
*170 _053_
*171 _054_
*172 _055_
*173 _056_
*174 _057_
*175 _058_
*176 _059_
*177 _060_
*178 _061_
*179 _062_
*180 _063_
*181 _064_
*182 _065_
*183 _066_
*184 _067_
*185 _068_
*186 _069_
*187 _070_
*188 _071_
*189 _072_
*190 _073_
*191 _074_
*192 _075_
*193 _076_
*194 _077_
*195 _078_
*196 _079_
*197 _080_
*198 _081_
*199 _082_
*200 _083_
*201 _084_
*202 _085_
*203 _086_
*204 _087_
*205 _088_
*206 _089_
*207 _090_
*208 _091_
*209 _092_
*210 _093_
*211 _094_
*212 _095_
*213 _096_
*214 _097_
*215 _098_
*216 _099_
*217 _100_
*218 _101_
*219 _102_
*220 _103_
*221 _104_
*222 _105_
*223 _106_
*224 _107_
*225 _108_
*226 _109_
*227 _110_
*228 _111_
*229 _112_
*230 _113_
*231 _114_
*232 _115_
*233 _116_
*234 _117_
*235 _118_
*236 _119_
*237 _120_
*238 _121_
*239 _122_
*240 _123_
*241 _124_
*242 _125_
*243 _126_
*244 _127_
*245 _128_
*246 _129_
*247 _130_
*248 _131_
*249 _132_
*250 _133_
*251 _134_
*252 _135_
*253 _136_
*254 _137_
*255 _138_
*256 _139_
*257 _140_
*258 _141_
*259 _142_
*260 _143_
*261 _144_
*262 _145_
*263 _146_
*264 _147_
*265 _148_
*266 _149_
*267 _150_
*268 _151_
*269 _152_
*270 mod\.clock_counter_a\[0\]
*271 mod\.clock_counter_a\[1\]
*272 mod\.clock_counter_a\[2\]
*273 mod\.clock_counter_a\[3\]
*274 mod\.clock_counter_a\[4\]
*275 mod\.clock_counter_a\[5\]
*276 mod\.clock_counter_a\[6\]
*277 mod\.clock_counter_b\[0\]
*278 mod\.clock_counter_b\[1\]
*279 mod\.clock_counter_b\[2\]
*280 mod\.clock_counter_b\[3\]
*281 mod\.clock_counter_b\[4\]
*282 mod\.clock_counter_b\[5\]
*283 mod\.clock_counter_b\[6\]
*284 mod\.clock_counter_c\[0\]
*285 mod\.clock_counter_c\[1\]
*286 mod\.clock_counter_c\[2\]
*287 mod\.clock_counter_c\[3\]
*288 mod\.clock_counter_c\[4\]
*289 mod\.clock_counter_c\[5\]
*290 mod\.clock_counter_c\[6\]
*291 mod\.clock_counter_d\[0\]
*292 mod\.clock_counter_d\[1\]
*293 mod\.clock_counter_d\[2\]
*294 mod\.clock_counter_d\[3\]
*295 mod\.clock_counter_d\[4\]
*296 mod\.clock_counter_d\[5\]
*297 mod\.clock_counter_d\[6\]
*298 mod\.clock_syn
*299 mod\.div_clock\[0\]
*300 mod\.div_clock\[1\]
*301 mod\.div_clock\[2\]
*302 mod\.div_clock\[3\]
*303 net1
*304 net10
*305 net11
*306 net12
*307 net13
*308 net14
*309 net15
*310 net16
*311 net17
*312 net18
*313 net19
*314 net2
*315 net20
*316 net21
*317 net22
*318 net23
*319 net24
*320 net25
*321 net26
*322 net27
*323 net28
*324 net29
*325 net3
*326 net30
*327 net31
*328 net32
*329 net4
*330 net5
*331 net6
*332 net7
*333 net8
*334 net9
*335 ANTENNA__307__CLK
*336 ANTENNA__318__CLK
*337 ANTENNA__319__CLK
*338 ANTENNA__320__CLK
*339 ANTENNA__321__CLK
*340 ANTENNA__322__CLK
*341 ANTENNA__323__CLK
*342 ANTENNA__324__CLK
*343 ANTENNA__325__CLK
*344 ANTENNA__326__CLK
*345 ANTENNA__327__CLK
*346 ANTENNA__332__CLK
*347 ANTENNA__333__CLK
*348 ANTENNA__334__CLK
*349 ANTENNA__335__CLK
*350 ANTENNA__336__CLK
*351 ANTENNA__337__CLK
*352 ANTENNA__338__CLK
*353 ANTENNA_fanout30_A
*354 ANTENNA_fanout31_A
*355 ANTENNA_input10_A
*356 ANTENNA_input11_A
*357 ANTENNA_input12_A
*358 ANTENNA_input13_A
*359 ANTENNA_input14_A
*360 ANTENNA_input15_A
*361 ANTENNA_input16_A
*362 ANTENNA_input17_A
*363 ANTENNA_input18_A
*364 ANTENNA_input19_A
*365 ANTENNA_input1_A
*366 ANTENNA_input20_A
*367 ANTENNA_input21_A
*368 ANTENNA_input22_A
*369 ANTENNA_input23_A
*370 ANTENNA_input24_A
*371 ANTENNA_input25_A
*372 ANTENNA_input26_A
*373 ANTENNA_input27_A
*374 ANTENNA_input2_A
*375 ANTENNA_input3_A
*376 ANTENNA_input4_A
*377 ANTENNA_input5_A
*378 ANTENNA_input6_A
*379 ANTENNA_input7_A
*380 ANTENNA_input8_A
*381 ANTENNA_input9_A
*382 FILLER_0_109
*383 FILLER_0_113
*384 FILLER_0_125
*385 FILLER_0_137
*386 FILLER_0_141
*387 FILLER_0_153
*388 FILLER_0_165
*389 FILLER_0_169
*390 FILLER_0_181
*391 FILLER_0_193
*392 FILLER_0_197
*393 FILLER_0_20
*394 FILLER_0_209
*395 FILLER_0_221
*396 FILLER_0_225
*397 FILLER_0_29
*398 FILLER_0_3
*399 FILLER_0_41
*400 FILLER_0_53
*401 FILLER_0_57
*402 FILLER_0_69
*403 FILLER_0_8
*404 FILLER_0_81
*405 FILLER_0_85
*406 FILLER_0_97
*407 FILLER_10_109
*408 FILLER_10_121
*409 FILLER_10_133
*410 FILLER_10_139
*411 FILLER_10_141
*412 FILLER_10_153
*413 FILLER_10_165
*414 FILLER_10_177
*415 FILLER_10_189
*416 FILLER_10_195
*417 FILLER_10_197
*418 FILLER_10_20
*419 FILLER_10_209
*420 FILLER_10_221
*421 FILLER_10_29
*422 FILLER_10_3
*423 FILLER_10_41
*424 FILLER_10_53
*425 FILLER_10_65
*426 FILLER_10_77
*427 FILLER_10_8
*428 FILLER_10_83
*429 FILLER_10_85
*430 FILLER_10_97
*431 FILLER_11_105
*432 FILLER_11_111
*433 FILLER_11_113
*434 FILLER_11_125
*435 FILLER_11_137
*436 FILLER_11_149
*437 FILLER_11_15
*438 FILLER_11_161
*439 FILLER_11_167
*440 FILLER_11_169
*441 FILLER_11_181
*442 FILLER_11_193
*443 FILLER_11_205
*444 FILLER_11_217
*445 FILLER_11_223
*446 FILLER_11_225
*447 FILLER_11_231
*448 FILLER_11_27
*449 FILLER_11_3
*450 FILLER_11_39
*451 FILLER_11_51
*452 FILLER_11_55
*453 FILLER_11_57
*454 FILLER_11_69
*455 FILLER_11_81
*456 FILLER_11_93
*457 FILLER_12_109
*458 FILLER_12_121
*459 FILLER_12_133
*460 FILLER_12_139
*461 FILLER_12_14
*462 FILLER_12_141
*463 FILLER_12_153
*464 FILLER_12_165
*465 FILLER_12_177
*466 FILLER_12_189
*467 FILLER_12_195
*468 FILLER_12_197
*469 FILLER_12_209
*470 FILLER_12_221
*471 FILLER_12_227
*472 FILLER_12_231
*473 FILLER_12_26
*474 FILLER_12_29
*475 FILLER_12_3
*476 FILLER_12_41
*477 FILLER_12_53
*478 FILLER_12_65
*479 FILLER_12_77
*480 FILLER_12_8
*481 FILLER_12_83
*482 FILLER_12_85
*483 FILLER_12_97
*484 FILLER_13_105
*485 FILLER_13_111
*486 FILLER_13_113
*487 FILLER_13_125
*488 FILLER_13_137
*489 FILLER_13_149
*490 FILLER_13_161
*491 FILLER_13_167
*492 FILLER_13_169
*493 FILLER_13_181
*494 FILLER_13_193
*495 FILLER_13_20
*496 FILLER_13_205
*497 FILLER_13_217
*498 FILLER_13_223
*499 FILLER_13_225
*500 FILLER_13_3
*501 FILLER_13_32
*502 FILLER_13_44
*503 FILLER_13_57
*504 FILLER_13_69
*505 FILLER_13_8
*506 FILLER_13_81
*507 FILLER_13_93
*508 FILLER_14_109
*509 FILLER_14_121
*510 FILLER_14_133
*511 FILLER_14_139
*512 FILLER_14_141
*513 FILLER_14_153
*514 FILLER_14_165
*515 FILLER_14_177
*516 FILLER_14_189
*517 FILLER_14_195
*518 FILLER_14_197
*519 FILLER_14_20
*520 FILLER_14_209
*521 FILLER_14_221
*522 FILLER_14_227
*523 FILLER_14_231
*524 FILLER_14_29
*525 FILLER_14_3
*526 FILLER_14_41
*527 FILLER_14_53
*528 FILLER_14_65
*529 FILLER_14_77
*530 FILLER_14_8
*531 FILLER_14_83
*532 FILLER_14_85
*533 FILLER_14_97
*534 FILLER_15_105
*535 FILLER_15_111
*536 FILLER_15_113
*537 FILLER_15_125
*538 FILLER_15_137
*539 FILLER_15_14
*540 FILLER_15_149
*541 FILLER_15_161
*542 FILLER_15_167
*543 FILLER_15_169
*544 FILLER_15_181
*545 FILLER_15_193
*546 FILLER_15_205
*547 FILLER_15_217
*548 FILLER_15_223
*549 FILLER_15_225
*550 FILLER_15_231
*551 FILLER_15_26
*552 FILLER_15_3
*553 FILLER_15_38
*554 FILLER_15_50
*555 FILLER_15_57
*556 FILLER_15_69
*557 FILLER_15_8
*558 FILLER_15_81
*559 FILLER_15_93
*560 FILLER_16_109
*561 FILLER_16_121
*562 FILLER_16_133
*563 FILLER_16_139
*564 FILLER_16_141
*565 FILLER_16_153
*566 FILLER_16_165
*567 FILLER_16_177
*568 FILLER_16_189
*569 FILLER_16_195
*570 FILLER_16_197
*571 FILLER_16_20
*572 FILLER_16_209
*573 FILLER_16_221
*574 FILLER_16_29
*575 FILLER_16_3
*576 FILLER_16_41
*577 FILLER_16_53
*578 FILLER_16_65
*579 FILLER_16_77
*580 FILLER_16_8
*581 FILLER_16_83
*582 FILLER_16_85
*583 FILLER_16_97
*584 FILLER_17_105
*585 FILLER_17_111
*586 FILLER_17_113
*587 FILLER_17_125
*588 FILLER_17_137
*589 FILLER_17_149
*590 FILLER_17_15
*591 FILLER_17_161
*592 FILLER_17_167
*593 FILLER_17_169
*594 FILLER_17_181
*595 FILLER_17_193
*596 FILLER_17_205
*597 FILLER_17_217
*598 FILLER_17_22
*599 FILLER_17_223
*600 FILLER_17_225
*601 FILLER_17_231
*602 FILLER_17_3
*603 FILLER_17_34
*604 FILLER_17_46
*605 FILLER_17_54
*606 FILLER_17_57
*607 FILLER_17_69
*608 FILLER_17_8
*609 FILLER_17_81
*610 FILLER_17_93
*611 FILLER_18_109
*612 FILLER_18_121
*613 FILLER_18_133
*614 FILLER_18_139
*615 FILLER_18_141
*616 FILLER_18_15
*617 FILLER_18_153
*618 FILLER_18_165
*619 FILLER_18_177
*620 FILLER_18_189
*621 FILLER_18_195
*622 FILLER_18_197
*623 FILLER_18_209
*624 FILLER_18_22
*625 FILLER_18_221
*626 FILLER_18_227
*627 FILLER_18_231
*628 FILLER_18_29
*629 FILLER_18_3
*630 FILLER_18_41
*631 FILLER_18_53
*632 FILLER_18_65
*633 FILLER_18_77
*634 FILLER_18_8
*635 FILLER_18_83
*636 FILLER_18_85
*637 FILLER_18_97
*638 FILLER_19_10
*639 FILLER_19_105
*640 FILLER_19_111
*641 FILLER_19_113
*642 FILLER_19_125
*643 FILLER_19_137
*644 FILLER_19_149
*645 FILLER_19_161
*646 FILLER_19_167
*647 FILLER_19_169
*648 FILLER_19_17
*649 FILLER_19_181
*650 FILLER_19_193
*651 FILLER_19_205
*652 FILLER_19_217
*653 FILLER_19_223
*654 FILLER_19_225
*655 FILLER_19_24
*656 FILLER_19_3
*657 FILLER_19_31
*658 FILLER_19_37
*659 FILLER_19_49
*660 FILLER_19_55
*661 FILLER_19_57
*662 FILLER_19_69
*663 FILLER_19_81
*664 FILLER_19_93
*665 FILLER_1_105
*666 FILLER_1_111
*667 FILLER_1_113
*668 FILLER_1_125
*669 FILLER_1_137
*670 FILLER_1_149
*671 FILLER_1_161
*672 FILLER_1_167
*673 FILLER_1_169
*674 FILLER_1_181
*675 FILLER_1_193
*676 FILLER_1_20
*677 FILLER_1_205
*678 FILLER_1_217
*679 FILLER_1_223
*680 FILLER_1_225
*681 FILLER_1_3
*682 FILLER_1_32
*683 FILLER_1_44
*684 FILLER_1_57
*685 FILLER_1_69
*686 FILLER_1_8
*687 FILLER_1_81
*688 FILLER_1_93
*689 FILLER_20_109
*690 FILLER_20_12
*691 FILLER_20_121
*692 FILLER_20_133
*693 FILLER_20_139
*694 FILLER_20_141
*695 FILLER_20_153
*696 FILLER_20_165
*697 FILLER_20_177
*698 FILLER_20_189
*699 FILLER_20_195
*700 FILLER_20_197
*701 FILLER_20_209
*702 FILLER_20_21
*703 FILLER_20_221
*704 FILLER_20_227
*705 FILLER_20_231
*706 FILLER_20_27
*707 FILLER_20_29
*708 FILLER_20_3
*709 FILLER_20_34
*710 FILLER_20_40
*711 FILLER_20_52
*712 FILLER_20_64
*713 FILLER_20_76
*714 FILLER_20_85
*715 FILLER_20_97
*716 FILLER_21_105
*717 FILLER_21_111
*718 FILLER_21_113
*719 FILLER_21_12
*720 FILLER_21_125
*721 FILLER_21_137
*722 FILLER_21_149
*723 FILLER_21_161
*724 FILLER_21_167
*725 FILLER_21_169
*726 FILLER_21_181
*727 FILLER_21_193
*728 FILLER_21_205
*729 FILLER_21_217
*730 FILLER_21_223
*731 FILLER_21_225
*732 FILLER_21_23
*733 FILLER_21_231
*734 FILLER_21_3
*735 FILLER_21_32
*736 FILLER_21_39
*737 FILLER_21_51
*738 FILLER_21_55
*739 FILLER_21_57
*740 FILLER_21_69
*741 FILLER_21_81
*742 FILLER_21_93
*743 FILLER_22_109
*744 FILLER_22_121
*745 FILLER_22_133
*746 FILLER_22_139
*747 FILLER_22_141
*748 FILLER_22_153
*749 FILLER_22_165
*750 FILLER_22_177
*751 FILLER_22_189
*752 FILLER_22_195
*753 FILLER_22_197
*754 FILLER_22_209
*755 FILLER_22_21
*756 FILLER_22_221
*757 FILLER_22_27
*758 FILLER_22_29
*759 FILLER_22_3
*760 FILLER_22_36
*761 FILLER_22_45
*762 FILLER_22_52
*763 FILLER_22_64
*764 FILLER_22_76
*765 FILLER_22_85
*766 FILLER_22_97
*767 FILLER_23_105
*768 FILLER_23_111
*769 FILLER_23_113
*770 FILLER_23_125
*771 FILLER_23_137
*772 FILLER_23_149
*773 FILLER_23_161
*774 FILLER_23_167
*775 FILLER_23_169
*776 FILLER_23_181
*777 FILLER_23_193
*778 FILLER_23_205
*779 FILLER_23_21
*780 FILLER_23_217
*781 FILLER_23_223
*782 FILLER_23_225
*783 FILLER_23_231
*784 FILLER_23_3
*785 FILLER_23_32
*786 FILLER_23_42
*787 FILLER_23_49
*788 FILLER_23_55
*789 FILLER_23_57
*790 FILLER_23_69
*791 FILLER_23_81
*792 FILLER_23_93
*793 FILLER_24_109
*794 FILLER_24_121
*795 FILLER_24_133
*796 FILLER_24_139
*797 FILLER_24_141
*798 FILLER_24_153
*799 FILLER_24_165
*800 FILLER_24_177
*801 FILLER_24_189
*802 FILLER_24_195
*803 FILLER_24_197
*804 FILLER_24_209
*805 FILLER_24_221
*806 FILLER_24_227
*807 FILLER_24_231
*808 FILLER_24_26
*809 FILLER_24_29
*810 FILLER_24_3
*811 FILLER_24_39
*812 FILLER_24_48
*813 FILLER_24_55
*814 FILLER_24_62
*815 FILLER_24_68
*816 FILLER_24_72
*817 FILLER_24_85
*818 FILLER_24_97
*819 FILLER_25_100
*820 FILLER_25_113
*821 FILLER_25_125
*822 FILLER_25_137
*823 FILLER_25_149
*824 FILLER_25_161
*825 FILLER_25_167
*826 FILLER_25_169
*827 FILLER_25_181
*828 FILLER_25_193
*829 FILLER_25_205
*830 FILLER_25_21
*831 FILLER_25_217
*832 FILLER_25_222
*833 FILLER_25_225
*834 FILLER_25_231
*835 FILLER_25_3
*836 FILLER_25_41
*837 FILLER_25_51
*838 FILLER_25_55
*839 FILLER_25_57
*840 FILLER_25_64
*841 FILLER_25_76
*842 FILLER_25_88
*843 FILLER_26_109
*844 FILLER_26_121
*845 FILLER_26_133
*846 FILLER_26_139
*847 FILLER_26_141
*848 FILLER_26_153
*849 FILLER_26_165
*850 FILLER_26_177
*851 FILLER_26_189
*852 FILLER_26_195
*853 FILLER_26_197
*854 FILLER_26_209
*855 FILLER_26_21
*856 FILLER_26_221
*857 FILLER_26_227
*858 FILLER_26_231
*859 FILLER_26_27
*860 FILLER_26_29
*861 FILLER_26_3
*862 FILLER_26_38
*863 FILLER_26_47
*864 FILLER_26_56
*865 FILLER_26_63
*866 FILLER_26_75
*867 FILLER_26_83
*868 FILLER_26_85
*869 FILLER_26_97
*870 FILLER_27_105
*871 FILLER_27_111
*872 FILLER_27_113
*873 FILLER_27_125
*874 FILLER_27_137
*875 FILLER_27_149
*876 FILLER_27_161
*877 FILLER_27_167
*878 FILLER_27_169
*879 FILLER_27_181
*880 FILLER_27_193
*881 FILLER_27_205
*882 FILLER_27_21
*883 FILLER_27_217
*884 FILLER_27_223
*885 FILLER_27_225
*886 FILLER_27_231
*887 FILLER_27_3
*888 FILLER_27_31
*889 FILLER_27_41
*890 FILLER_27_48
*891 FILLER_27_57
*892 FILLER_27_69
*893 FILLER_27_81
*894 FILLER_27_93
*895 FILLER_28_109
*896 FILLER_28_121
*897 FILLER_28_133
*898 FILLER_28_139
*899 FILLER_28_141
*900 FILLER_28_153
*901 FILLER_28_165
*902 FILLER_28_177
*903 FILLER_28_189
*904 FILLER_28_195
*905 FILLER_28_197
*906 FILLER_28_209
*907 FILLER_28_21
*908 FILLER_28_221
*909 FILLER_28_224
*910 FILLER_28_231
*911 FILLER_28_27
*912 FILLER_28_29
*913 FILLER_28_3
*914 FILLER_28_36
*915 FILLER_28_43
*916 FILLER_28_55
*917 FILLER_28_67
*918 FILLER_28_79
*919 FILLER_28_83
*920 FILLER_28_85
*921 FILLER_28_97
*922 FILLER_29_101
*923 FILLER_29_109
*924 FILLER_29_113
*925 FILLER_29_12
*926 FILLER_29_125
*927 FILLER_29_137
*928 FILLER_29_149
*929 FILLER_29_161
*930 FILLER_29_167
*931 FILLER_29_169
*932 FILLER_29_181
*933 FILLER_29_193
*934 FILLER_29_205
*935 FILLER_29_217
*936 FILLER_29_22
*937 FILLER_29_223
*938 FILLER_29_225
*939 FILLER_29_231
*940 FILLER_29_29
*941 FILLER_29_3
*942 FILLER_29_41
*943 FILLER_29_53
*944 FILLER_29_57
*945 FILLER_29_69
*946 FILLER_29_89
*947 FILLER_2_109
*948 FILLER_2_121
*949 FILLER_2_133
*950 FILLER_2_139
*951 FILLER_2_141
*952 FILLER_2_153
*953 FILLER_2_165
*954 FILLER_2_177
*955 FILLER_2_189
*956 FILLER_2_195
*957 FILLER_2_197
*958 FILLER_2_20
*959 FILLER_2_209
*960 FILLER_2_221
*961 FILLER_2_227
*962 FILLER_2_231
*963 FILLER_2_29
*964 FILLER_2_3
*965 FILLER_2_41
*966 FILLER_2_53
*967 FILLER_2_65
*968 FILLER_2_77
*969 FILLER_2_8
*970 FILLER_2_83
*971 FILLER_2_85
*972 FILLER_2_97
*973 FILLER_30_109
*974 FILLER_30_11
*975 FILLER_30_121
*976 FILLER_30_133
*977 FILLER_30_139
*978 FILLER_30_141
*979 FILLER_30_153
*980 FILLER_30_165
*981 FILLER_30_177
*982 FILLER_30_18
*983 FILLER_30_189
*984 FILLER_30_195
*985 FILLER_30_197
*986 FILLER_30_209
*987 FILLER_30_221
*988 FILLER_30_224
*989 FILLER_30_231
*990 FILLER_30_25
*991 FILLER_30_29
*992 FILLER_30_3
*993 FILLER_30_41
*994 FILLER_30_53
*995 FILLER_30_61
*996 FILLER_30_69
*997 FILLER_30_81
*998 FILLER_30_85
*999 FILLER_30_97
*1000 FILLER_31_105
*1001 FILLER_31_110
*1002 FILLER_31_113
*1003 FILLER_31_136
*1004 FILLER_31_148
*1005 FILLER_31_15
*1006 FILLER_31_160
*1007 FILLER_31_169
*1008 FILLER_31_181
*1009 FILLER_31_193
*1010 FILLER_31_205
*1011 FILLER_31_21
*1012 FILLER_31_217
*1013 FILLER_31_222
*1014 FILLER_31_225
*1015 FILLER_31_231
*1016 FILLER_31_3
*1017 FILLER_31_33
*1018 FILLER_31_45
*1019 FILLER_31_53
*1020 FILLER_31_57
*1021 FILLER_31_69
*1022 FILLER_31_8
*1023 FILLER_31_81
*1024 FILLER_31_93
*1025 FILLER_32_109
*1026 FILLER_32_121
*1027 FILLER_32_133
*1028 FILLER_32_139
*1029 FILLER_32_141
*1030 FILLER_32_145
*1031 FILLER_32_15
*1032 FILLER_32_157
*1033 FILLER_32_169
*1034 FILLER_32_181
*1035 FILLER_32_193
*1036 FILLER_32_197
*1037 FILLER_32_209
*1038 FILLER_32_21
*1039 FILLER_32_214
*1040 FILLER_32_221
*1041 FILLER_32_231
*1042 FILLER_32_27
*1043 FILLER_32_29
*1044 FILLER_32_3
*1045 FILLER_32_41
*1046 FILLER_32_53
*1047 FILLER_32_65
*1048 FILLER_32_77
*1049 FILLER_32_8
*1050 FILLER_32_83
*1051 FILLER_32_85
*1052 FILLER_32_97
*1053 FILLER_33_10
*1054 FILLER_33_108
*1055 FILLER_33_113
*1056 FILLER_33_125
*1057 FILLER_33_142
*1058 FILLER_33_153
*1059 FILLER_33_165
*1060 FILLER_33_169
*1061 FILLER_33_17
*1062 FILLER_33_181
*1063 FILLER_33_193
*1064 FILLER_33_201
*1065 FILLER_33_206
*1066 FILLER_33_213
*1067 FILLER_33_222
*1068 FILLER_33_225
*1069 FILLER_33_231
*1070 FILLER_33_24
*1071 FILLER_33_3
*1072 FILLER_33_30
*1073 FILLER_33_42
*1074 FILLER_33_54
*1075 FILLER_33_57
*1076 FILLER_33_65
*1077 FILLER_33_84
*1078 FILLER_33_96
*1079 FILLER_34_116
*1080 FILLER_34_12
*1081 FILLER_34_128
*1082 FILLER_34_141
*1083 FILLER_34_153
*1084 FILLER_34_165
*1085 FILLER_34_177
*1086 FILLER_34_189
*1087 FILLER_34_194
*1088 FILLER_34_197
*1089 FILLER_34_202
*1090 FILLER_34_21
*1091 FILLER_34_211
*1092 FILLER_34_231
*1093 FILLER_34_27
*1094 FILLER_34_29
*1095 FILLER_34_3
*1096 FILLER_34_33
*1097 FILLER_34_39
*1098 FILLER_34_51
*1099 FILLER_34_66
*1100 FILLER_34_78
*1101 FILLER_34_85
*1102 FILLER_34_97
*1103 FILLER_35_105
*1104 FILLER_35_111
*1105 FILLER_35_113
*1106 FILLER_35_12
*1107 FILLER_35_125
*1108 FILLER_35_137
*1109 FILLER_35_149
*1110 FILLER_35_161
*1111 FILLER_35_167
*1112 FILLER_35_169
*1113 FILLER_35_181
*1114 FILLER_35_189
*1115 FILLER_35_193
*1116 FILLER_35_200
*1117 FILLER_35_210
*1118 FILLER_35_22
*1119 FILLER_35_222
*1120 FILLER_35_225
*1121 FILLER_35_231
*1122 FILLER_35_29
*1123 FILLER_35_3
*1124 FILLER_35_36
*1125 FILLER_35_42
*1126 FILLER_35_48
*1127 FILLER_35_57
*1128 FILLER_35_69
*1129 FILLER_35_81
*1130 FILLER_35_93
*1131 FILLER_35_97
*1132 FILLER_36_107
*1133 FILLER_36_119
*1134 FILLER_36_131
*1135 FILLER_36_139
*1136 FILLER_36_141
*1137 FILLER_36_153
*1138 FILLER_36_165
*1139 FILLER_36_177
*1140 FILLER_36_181
*1141 FILLER_36_184
*1142 FILLER_36_194
*1143 FILLER_36_197
*1144 FILLER_36_203
*1145 FILLER_36_21
*1146 FILLER_36_211
*1147 FILLER_36_231
*1148 FILLER_36_27
*1149 FILLER_36_29
*1150 FILLER_36_3
*1151 FILLER_36_36
*1152 FILLER_36_43
*1153 FILLER_36_49
*1154 FILLER_36_55
*1155 FILLER_36_61
*1156 FILLER_36_73
*1157 FILLER_36_81
*1158 FILLER_36_85
*1159 FILLER_36_97
*1160 FILLER_37_103
*1161 FILLER_37_111
*1162 FILLER_37_113
*1163 FILLER_37_125
*1164 FILLER_37_137
*1165 FILLER_37_149
*1166 FILLER_37_161
*1167 FILLER_37_167
*1168 FILLER_37_169
*1169 FILLER_37_177
*1170 FILLER_37_181
*1171 FILLER_37_191
*1172 FILLER_37_202
*1173 FILLER_37_21
*1174 FILLER_37_222
*1175 FILLER_37_225
*1176 FILLER_37_231
*1177 FILLER_37_3
*1178 FILLER_37_32
*1179 FILLER_37_41
*1180 FILLER_37_48
*1181 FILLER_37_54
*1182 FILLER_37_57
*1183 FILLER_37_61
*1184 FILLER_37_67
*1185 FILLER_37_79
*1186 FILLER_37_91
*1187 FILLER_38_109
*1188 FILLER_38_121
*1189 FILLER_38_133
*1190 FILLER_38_139
*1191 FILLER_38_141
*1192 FILLER_38_153
*1193 FILLER_38_165
*1194 FILLER_38_174
*1195 FILLER_38_184
*1196 FILLER_38_194
*1197 FILLER_38_197
*1198 FILLER_38_206
*1199 FILLER_38_21
*1200 FILLER_38_231
*1201 FILLER_38_27
*1202 FILLER_38_29
*1203 FILLER_38_3
*1204 FILLER_38_39
*1205 FILLER_38_48
*1206 FILLER_38_55
*1207 FILLER_38_62
*1208 FILLER_38_68
*1209 FILLER_38_74
*1210 FILLER_38_82
*1211 FILLER_38_85
*1212 FILLER_38_97
*1213 FILLER_39_101
*1214 FILLER_39_110
*1215 FILLER_39_113
*1216 FILLER_39_125
*1217 FILLER_39_137
*1218 FILLER_39_149
*1219 FILLER_39_161
*1220 FILLER_39_167
*1221 FILLER_39_169
*1222 FILLER_39_180
*1223 FILLER_39_191
*1224 FILLER_39_202
*1225 FILLER_39_222
*1226 FILLER_39_225
*1227 FILLER_39_230
*1228 FILLER_39_26
*1229 FILLER_39_3
*1230 FILLER_39_46
*1231 FILLER_39_53
*1232 FILLER_39_57
*1233 FILLER_39_64
*1234 FILLER_39_71
*1235 FILLER_39_77
*1236 FILLER_39_89
*1237 FILLER_3_105
*1238 FILLER_3_111
*1239 FILLER_3_113
*1240 FILLER_3_125
*1241 FILLER_3_137
*1242 FILLER_3_149
*1243 FILLER_3_161
*1244 FILLER_3_167
*1245 FILLER_3_169
*1246 FILLER_3_181
*1247 FILLER_3_193
*1248 FILLER_3_20
*1249 FILLER_3_205
*1250 FILLER_3_217
*1251 FILLER_3_223
*1252 FILLER_3_225
*1253 FILLER_3_231
*1254 FILLER_3_3
*1255 FILLER_3_32
*1256 FILLER_3_44
*1257 FILLER_3_57
*1258 FILLER_3_69
*1259 FILLER_3_8
*1260 FILLER_3_81
*1261 FILLER_3_93
*1262 FILLER_40_102
*1263 FILLER_40_111
*1264 FILLER_40_118
*1265 FILLER_40_124
*1266 FILLER_40_136
*1267 FILLER_40_141
*1268 FILLER_40_153
*1269 FILLER_40_165
*1270 FILLER_40_171
*1271 FILLER_40_178
*1272 FILLER_40_185
*1273 FILLER_40_194
*1274 FILLER_40_197
*1275 FILLER_40_203
*1276 FILLER_40_21
*1277 FILLER_40_211
*1278 FILLER_40_231
*1279 FILLER_40_27
*1280 FILLER_40_29
*1281 FILLER_40_3
*1282 FILLER_40_38
*1283 FILLER_40_47
*1284 FILLER_40_56
*1285 FILLER_40_63
*1286 FILLER_40_70
*1287 FILLER_40_76
*1288 FILLER_40_82
*1289 FILLER_40_85
*1290 FILLER_40_91
*1291 FILLER_40_95
*1292 FILLER_41_110
*1293 FILLER_41_113
*1294 FILLER_41_121
*1295 FILLER_41_128
*1296 FILLER_41_140
*1297 FILLER_41_152
*1298 FILLER_41_164
*1299 FILLER_41_169
*1300 FILLER_41_179
*1301 FILLER_41_186
*1302 FILLER_41_193
*1303 FILLER_41_202
*1304 FILLER_41_21
*1305 FILLER_41_222
*1306 FILLER_41_225
*1307 FILLER_41_230
*1308 FILLER_41_3
*1309 FILLER_41_32
*1310 FILLER_41_42
*1311 FILLER_41_49
*1312 FILLER_41_55
*1313 FILLER_41_57
*1314 FILLER_41_62
*1315 FILLER_41_69
*1316 FILLER_41_76
*1317 FILLER_41_83
*1318 FILLER_41_90
*1319 FILLER_41_99
*1320 FILLER_42_117
*1321 FILLER_42_127
*1322 FILLER_42_134
*1323 FILLER_42_141
*1324 FILLER_42_153
*1325 FILLER_42_165
*1326 FILLER_42_177
*1327 FILLER_42_182
*1328 FILLER_42_188
*1329 FILLER_42_194
*1330 FILLER_42_197
*1331 FILLER_42_202
*1332 FILLER_42_21
*1333 FILLER_42_211
*1334 FILLER_42_231
*1335 FILLER_42_27
*1336 FILLER_42_29
*1337 FILLER_42_3
*1338 FILLER_42_37
*1339 FILLER_42_44
*1340 FILLER_42_51
*1341 FILLER_42_58
*1342 FILLER_42_65
*1343 FILLER_42_71
*1344 FILLER_42_75
*1345 FILLER_42_82
*1346 FILLER_42_85
*1347 FILLER_42_91
*1348 FILLER_42_97
*1349 FILLER_43_110
*1350 FILLER_43_113
*1351 FILLER_43_12
*1352 FILLER_43_122
*1353 FILLER_43_132
*1354 FILLER_43_141
*1355 FILLER_43_148
*1356 FILLER_43_154
*1357 FILLER_43_166
*1358 FILLER_43_169
*1359 FILLER_43_181
*1360 FILLER_43_189
*1361 FILLER_43_192
*1362 FILLER_43_199
*1363 FILLER_43_206
*1364 FILLER_43_213
*1365 FILLER_43_22
*1366 FILLER_43_222
*1367 FILLER_43_225
*1368 FILLER_43_230
*1369 FILLER_43_3
*1370 FILLER_43_31
*1371 FILLER_43_38
*1372 FILLER_43_45
*1373 FILLER_43_52
*1374 FILLER_43_57
*1375 FILLER_43_62
*1376 FILLER_43_68
*1377 FILLER_43_72
*1378 FILLER_43_81
*1379 FILLER_43_90
*1380 FILLER_44_100
*1381 FILLER_44_11
*1382 FILLER_44_120
*1383 FILLER_44_131
*1384 FILLER_44_138
*1385 FILLER_44_141
*1386 FILLER_44_148
*1387 FILLER_44_155
*1388 FILLER_44_162
*1389 FILLER_44_168
*1390 FILLER_44_180
*1391 FILLER_44_186
*1392 FILLER_44_190
*1393 FILLER_44_194
*1394 FILLER_44_197
*1395 FILLER_44_203
*1396 FILLER_44_21
*1397 FILLER_44_210
*1398 FILLER_44_219
*1399 FILLER_44_228
*1400 FILLER_44_232
*1401 FILLER_44_27
*1402 FILLER_44_29
*1403 FILLER_44_3
*1404 FILLER_44_34
*1405 FILLER_44_41
*1406 FILLER_44_50
*1407 FILLER_44_57
*1408 FILLER_44_64
*1409 FILLER_44_73
*1410 FILLER_44_82
*1411 FILLER_44_85
*1412 FILLER_44_89
*1413 FILLER_45_10
*1414 FILLER_45_110
*1415 FILLER_45_113
*1416 FILLER_45_131
*1417 FILLER_45_142
*1418 FILLER_45_152
*1419 FILLER_45_160
*1420 FILLER_45_166
*1421 FILLER_45_169
*1422 FILLER_45_17
*1423 FILLER_45_174
*1424 FILLER_45_180
*1425 FILLER_45_184
*1426 FILLER_45_191
*1427 FILLER_45_198
*1428 FILLER_45_205
*1429 FILLER_45_212
*1430 FILLER_45_218
*1431 FILLER_45_222
*1432 FILLER_45_225
*1433 FILLER_45_230
*1434 FILLER_45_24
*1435 FILLER_45_28
*1436 FILLER_45_3
*1437 FILLER_45_32
*1438 FILLER_45_36
*1439 FILLER_45_40
*1440 FILLER_45_47
*1441 FILLER_45_54
*1442 FILLER_45_57
*1443 FILLER_45_63
*1444 FILLER_45_69
*1445 FILLER_45_79
*1446 FILLER_45_90
*1447 FILLER_46_110
*1448 FILLER_46_113
*1449 FILLER_46_136
*1450 FILLER_46_141
*1451 FILLER_46_15
*1452 FILLER_46_151
*1453 FILLER_46_161
*1454 FILLER_46_167
*1455 FILLER_46_169
*1456 FILLER_46_174
*1457 FILLER_46_181
*1458 FILLER_46_188
*1459 FILLER_46_194
*1460 FILLER_46_197
*1461 FILLER_46_202
*1462 FILLER_46_209
*1463 FILLER_46_215
*1464 FILLER_46_22
*1465 FILLER_46_222
*1466 FILLER_46_225
*1467 FILLER_46_231
*1468 FILLER_46_29
*1469 FILLER_46_3
*1470 FILLER_46_33
*1471 FILLER_46_40
*1472 FILLER_46_47
*1473 FILLER_46_54
*1474 FILLER_46_57
*1475 FILLER_46_62
*1476 FILLER_46_8
*1477 FILLER_46_82
*1478 FILLER_46_85
*1479 FILLER_46_90
*1480 FILLER_4_109
*1481 FILLER_4_121
*1482 FILLER_4_133
*1483 FILLER_4_139
*1484 FILLER_4_141
*1485 FILLER_4_15
*1486 FILLER_4_153
*1487 FILLER_4_165
*1488 FILLER_4_177
*1489 FILLER_4_189
*1490 FILLER_4_195
*1491 FILLER_4_197
*1492 FILLER_4_209
*1493 FILLER_4_221
*1494 FILLER_4_27
*1495 FILLER_4_29
*1496 FILLER_4_3
*1497 FILLER_4_41
*1498 FILLER_4_53
*1499 FILLER_4_65
*1500 FILLER_4_77
*1501 FILLER_4_83
*1502 FILLER_4_85
*1503 FILLER_4_97
*1504 FILLER_5_105
*1505 FILLER_5_111
*1506 FILLER_5_113
*1507 FILLER_5_125
*1508 FILLER_5_137
*1509 FILLER_5_149
*1510 FILLER_5_161
*1511 FILLER_5_167
*1512 FILLER_5_169
*1513 FILLER_5_181
*1514 FILLER_5_193
*1515 FILLER_5_20
*1516 FILLER_5_205
*1517 FILLER_5_217
*1518 FILLER_5_223
*1519 FILLER_5_225
*1520 FILLER_5_231
*1521 FILLER_5_3
*1522 FILLER_5_32
*1523 FILLER_5_44
*1524 FILLER_5_57
*1525 FILLER_5_69
*1526 FILLER_5_8
*1527 FILLER_5_81
*1528 FILLER_5_93
*1529 FILLER_6_109
*1530 FILLER_6_121
*1531 FILLER_6_133
*1532 FILLER_6_139
*1533 FILLER_6_141
*1534 FILLER_6_15
*1535 FILLER_6_153
*1536 FILLER_6_165
*1537 FILLER_6_177
*1538 FILLER_6_189
*1539 FILLER_6_195
*1540 FILLER_6_197
*1541 FILLER_6_209
*1542 FILLER_6_221
*1543 FILLER_6_227
*1544 FILLER_6_231
*1545 FILLER_6_27
*1546 FILLER_6_29
*1547 FILLER_6_3
*1548 FILLER_6_41
*1549 FILLER_6_53
*1550 FILLER_6_65
*1551 FILLER_6_77
*1552 FILLER_6_83
*1553 FILLER_6_85
*1554 FILLER_6_97
*1555 FILLER_7_105
*1556 FILLER_7_111
*1557 FILLER_7_113
*1558 FILLER_7_125
*1559 FILLER_7_137
*1560 FILLER_7_149
*1561 FILLER_7_161
*1562 FILLER_7_167
*1563 FILLER_7_169
*1564 FILLER_7_181
*1565 FILLER_7_193
*1566 FILLER_7_205
*1567 FILLER_7_21
*1568 FILLER_7_217
*1569 FILLER_7_223
*1570 FILLER_7_225
*1571 FILLER_7_3
*1572 FILLER_7_33
*1573 FILLER_7_45
*1574 FILLER_7_53
*1575 FILLER_7_57
*1576 FILLER_7_69
*1577 FILLER_7_81
*1578 FILLER_7_9
*1579 FILLER_7_93
*1580 FILLER_8_109
*1581 FILLER_8_121
*1582 FILLER_8_133
*1583 FILLER_8_139
*1584 FILLER_8_141
*1585 FILLER_8_15
*1586 FILLER_8_153
*1587 FILLER_8_165
*1588 FILLER_8_177
*1589 FILLER_8_189
*1590 FILLER_8_195
*1591 FILLER_8_197
*1592 FILLER_8_209
*1593 FILLER_8_221
*1594 FILLER_8_227
*1595 FILLER_8_231
*1596 FILLER_8_27
*1597 FILLER_8_29
*1598 FILLER_8_3
*1599 FILLER_8_41
*1600 FILLER_8_53
*1601 FILLER_8_65
*1602 FILLER_8_77
*1603 FILLER_8_83
*1604 FILLER_8_85
*1605 FILLER_8_97
*1606 FILLER_9_105
*1607 FILLER_9_111
*1608 FILLER_9_113
*1609 FILLER_9_125
*1610 FILLER_9_137
*1611 FILLER_9_149
*1612 FILLER_9_161
*1613 FILLER_9_167
*1614 FILLER_9_169
*1615 FILLER_9_181
*1616 FILLER_9_193
*1617 FILLER_9_20
*1618 FILLER_9_205
*1619 FILLER_9_217
*1620 FILLER_9_223
*1621 FILLER_9_225
*1622 FILLER_9_231
*1623 FILLER_9_3
*1624 FILLER_9_32
*1625 FILLER_9_44
*1626 FILLER_9_57
*1627 FILLER_9_69
*1628 FILLER_9_8
*1629 FILLER_9_81
*1630 FILLER_9_93
*1631 PHY_0
*1632 PHY_1
*1633 PHY_10
*1634 PHY_11
*1635 PHY_12
*1636 PHY_13
*1637 PHY_14
*1638 PHY_15
*1639 PHY_16
*1640 PHY_17
*1641 PHY_18
*1642 PHY_19
*1643 PHY_2
*1644 PHY_20
*1645 PHY_21
*1646 PHY_22
*1647 PHY_23
*1648 PHY_24
*1649 PHY_25
*1650 PHY_26
*1651 PHY_27
*1652 PHY_28
*1653 PHY_29
*1654 PHY_3
*1655 PHY_30
*1656 PHY_31
*1657 PHY_32
*1658 PHY_33
*1659 PHY_34
*1660 PHY_35
*1661 PHY_36
*1662 PHY_37
*1663 PHY_38
*1664 PHY_39
*1665 PHY_4
*1666 PHY_40
*1667 PHY_41
*1668 PHY_42
*1669 PHY_43
*1670 PHY_44
*1671 PHY_45
*1672 PHY_46
*1673 PHY_47
*1674 PHY_48
*1675 PHY_49
*1676 PHY_5
*1677 PHY_50
*1678 PHY_51
*1679 PHY_52
*1680 PHY_53
*1681 PHY_54
*1682 PHY_55
*1683 PHY_56
*1684 PHY_57
*1685 PHY_58
*1686 PHY_59
*1687 PHY_6
*1688 PHY_60
*1689 PHY_61
*1690 PHY_62
*1691 PHY_63