*SPEF "ieee 1481-1999"
*DESIGN "tiny_user_project"
*DATE "11:11:11 Fri 11 11, 1111"
*VENDOR "OpenRCX"
*PROGRAM "Parallel Extraction"
*VERSION "1.0"
*DESIGN_FLOW "NAME_SCOPE LOCAL" "PIN_CAP NONE"
*DIVIDER /
*DELIMITER :
*BUS_DELIMITER []
*T_UNIT 1 NS
*C_UNIT 1 PF
*R_UNIT 1 OHM
*L_UNIT 1 HENRY

*NAME_MAP
*1 io_in[0]
*2 io_in[10]
*3 io_in[11]
*4 io_in[12]
*5 io_in[13]
*6 io_in[14]
*7 io_in[15]
*8 io_in[16]
*9 io_in[17]
*10 io_in[18]
*11 io_in[19]
*12 io_in[1]
*13 io_in[20]
*14 io_in[21]
*15 io_in[22]
*16 io_in[23]
*17 io_in[24]
*18 io_in[25]
*19 io_in[26]
*20 io_in[27]
*21 io_in[28]
*22 io_in[29]
*23 io_in[2]
*24 io_in[30]
*25 io_in[31]
*26 io_in[32]
*27 io_in[33]
*28 io_in[34]
*29 io_in[35]
*30 io_in[36]
*31 io_in[37]
*32 io_in[3]
*33 io_in[4]
*34 io_in[5]
*35 io_in[6]
*36 io_in[7]
*37 io_in[8]
*38 io_in[9]
*39 net33
*40 net43
*41 net44
*42 net45
*43 net46
*44 net47
*45 net48
*46 net49
*47 net50
*48 net51
*49 net52
*50 net34
*51 net53
*52 net54
*53 net55
*54 net56
*55 net57
*56 net58
*57 net59
*58 net60
*59 net61
*60 net62
*61 net35
*62 net63
*63 net64
*64 net65
*65 net66
*66 net67
*67 net68
*68 net69
*69 net70
*70 net36
*71 net37
*72 net38
*73 net39
*74 net40
*75 net41
*76 net42
*77 net71
*78 net81
*79 net82
*80 net83
*81 net84
*82 net85
*83 net86
*84 net87
*85 net88
*86 net89
*87 net90
*88 net72
*89 net91
*90 net92
*91 net93
*92 net94
*93 net95
*94 net96
*95 net97
*96 net98
*97 net99
*98 net100
*99 net73
*100 net101
*101 net102
*102 net103
*103 net104
*104 net105
*105 io_out[35]
*106 net106
*107 net107
*108 net74
*109 net75
*110 net76
*111 net77
*112 net78
*113 net79
*114 net80
*117 _000_
*118 _001_
*119 _002_
*120 _003_
*121 _004_
*122 _005_
*123 _006_
*124 _007_
*125 _008_
*126 _009_
*127 _010_
*128 _011_
*129 _012_
*130 _013_
*131 _014_
*132 _015_
*133 _016_
*134 _017_
*135 _018_
*136 _019_
*137 _020_
*138 _021_
*139 _022_
*140 _023_
*141 _024_
*142 _025_
*143 _026_
*144 _027_
*145 _028_
*146 _029_
*147 _030_
*148 _031_
*149 _032_
*150 _033_
*151 _034_
*152 _035_
*153 _036_
*154 _037_
*155 _038_
*156 _039_
*157 _040_
*158 _041_
*159 _042_
*160 _043_
*161 _044_
*162 _045_
*163 _046_
*164 _047_
*165 _048_
*166 _049_
*167 _050_
*168 _051_
*169 _052_
*170 _053_
*171 _054_
*172 _055_
*173 _056_
*174 _057_
*175 _058_
*176 _059_
*177 _060_
*178 _061_
*179 _062_
*180 _063_
*181 _064_
*182 _065_
*183 _066_
*184 _067_
*185 _068_
*186 _069_
*187 _070_
*188 _071_
*189 _072_
*190 _073_
*191 _074_
*192 _075_
*193 _076_
*194 _077_
*195 _078_
*196 _079_
*197 _080_
*198 _081_
*199 _082_
*200 _083_
*201 _084_
*202 _085_
*203 _086_
*204 _087_
*205 _088_
*206 _089_
*207 _090_
*208 _091_
*209 _092_
*210 _093_
*211 _094_
*212 _095_
*213 _096_
*214 _097_
*215 _098_
*216 _099_
*217 _100_
*218 _101_
*219 _102_
*220 _103_
*221 _104_
*222 _105_
*223 _106_
*224 _107_
*225 _108_
*226 _109_
*227 _110_
*228 _111_
*229 _112_
*230 _113_
*231 _114_
*232 _115_
*233 _116_
*234 _117_
*235 _118_
*236 _119_
*237 _120_
*238 _121_
*239 _122_
*240 _123_
*241 _124_
*242 _125_
*243 _126_
*244 _127_
*245 _128_
*246 _129_
*247 _130_
*248 _131_
*249 _132_
*250 _133_
*251 _134_
*252 _135_
*253 _136_
*254 _137_
*255 _138_
*256 _139_
*257 _140_
*258 _141_
*259 _142_
*260 _143_
*261 _144_
*262 _145_
*263 _146_
*264 _147_
*265 _148_
*266 _149_
*267 _150_
*268 _151_
*269 _152_
*270 mod\.clock_counter_a\[0\]
*271 mod\.clock_counter_a\[1\]
*272 mod\.clock_counter_a\[2\]
*273 mod\.clock_counter_a\[3\]
*274 mod\.clock_counter_a\[4\]
*275 mod\.clock_counter_a\[5\]
*276 mod\.clock_counter_a\[6\]
*277 mod\.clock_counter_b\[0\]
*278 mod\.clock_counter_b\[1\]
*279 mod\.clock_counter_b\[2\]
*280 mod\.clock_counter_b\[3\]
*281 mod\.clock_counter_b\[4\]
*282 mod\.clock_counter_b\[5\]
*283 mod\.clock_counter_b\[6\]
*284 mod\.clock_counter_c\[0\]
*285 mod\.clock_counter_c\[1\]
*286 mod\.clock_counter_c\[2\]
*287 mod\.clock_counter_c\[3\]
*288 mod\.clock_counter_c\[4\]
*289 mod\.clock_counter_c\[5\]
*290 mod\.clock_counter_c\[6\]
*291 mod\.clock_counter_d\[0\]
*292 mod\.clock_counter_d\[1\]
*293 mod\.clock_counter_d\[2\]
*294 mod\.clock_counter_d\[3\]
*295 mod\.clock_counter_d\[4\]
*296 mod\.clock_counter_d\[5\]
*297 mod\.clock_counter_d\[6\]
*298 mod\.clock_syn
*299 mod\.div_clock\[0\]
*300 mod\.div_clock\[1\]
*301 mod\.div_clock\[2\]
*302 mod\.div_clock\[3\]
*303 net1
*304 net10
*305 net11
*306 net12
*307 net13
*308 net14
*309 net15
*310 net16
*311 net17
*312 net18
*313 net19
*314 net2
*315 net20
*316 net21
*317 net22
*318 net23
*319 net24
*320 net25
*321 net26
*322 net27
*323 net28
*324 net29
*325 net3
*326 net30
*327 net31
*328 net32
*329 net4
*330 net5
*331 net6
*332 net7
*333 net8
*334 net9
*335 ANTENNA_input10_A
*336 ANTENNA_input11_A
*337 ANTENNA_input12_A
*338 ANTENNA_input13_A
*339 ANTENNA_input14_A
*340 ANTENNA_input15_A
*341 ANTENNA_input16_A
*342 ANTENNA_input17_A
*343 ANTENNA_input18_A
*344 ANTENNA_input19_A
*345 ANTENNA_input1_A
*346 ANTENNA_input20_A
*347 ANTENNA_input21_A
*348 ANTENNA_input22_A
*349 ANTENNA_input23_A
*350 ANTENNA_input24_A
*351 ANTENNA_input25_A
*352 ANTENNA_input26_A
*353 ANTENNA_input27_A
*354 ANTENNA_input2_A
*355 ANTENNA_input3_A
*356 ANTENNA_input4_A
*357 ANTENNA_input5_A
*358 ANTENNA_input6_A
*359 ANTENNA_input7_A
*360 ANTENNA_input8_A
*361 ANTENNA_input9_A
*362 FILLER_0_109
*363 FILLER_0_113
*364 FILLER_0_125
*365 FILLER_0_137
*366 FILLER_0_141
*367 FILLER_0_15
*368 FILLER_0_153
*369 FILLER_0_165
*370 FILLER_0_169
*371 FILLER_0_177
*372 FILLER_0_181
*373 FILLER_0_188
*374 FILLER_0_22
*375 FILLER_0_29
*376 FILLER_0_3
*377 FILLER_0_41
*378 FILLER_0_53
*379 FILLER_0_57
*380 FILLER_0_69
*381 FILLER_0_8
*382 FILLER_0_81
*383 FILLER_0_85
*384 FILLER_0_97
*385 FILLER_10_109
*386 FILLER_10_12
*387 FILLER_10_121
*388 FILLER_10_133
*389 FILLER_10_139
*390 FILLER_10_141
*391 FILLER_10_153
*392 FILLER_10_165
*393 FILLER_10_177
*394 FILLER_10_188
*395 FILLER_10_21
*396 FILLER_10_27
*397 FILLER_10_29
*398 FILLER_10_3
*399 FILLER_10_34
*400 FILLER_10_41
*401 FILLER_10_48
*402 FILLER_10_55
*403 FILLER_10_62
*404 FILLER_10_68
*405 FILLER_10_80
*406 FILLER_10_85
*407 FILLER_10_97
*408 FILLER_11_111
*409 FILLER_11_113
*410 FILLER_11_12
*411 FILLER_11_125
*412 FILLER_11_137
*413 FILLER_11_149
*414 FILLER_11_161
*415 FILLER_11_167
*416 FILLER_11_169
*417 FILLER_11_177
*418 FILLER_11_188
*419 FILLER_11_22
*420 FILLER_11_3
*421 FILLER_11_31
*422 FILLER_11_38
*423 FILLER_11_45
*424 FILLER_11_52
*425 FILLER_11_57
*426 FILLER_11_62
*427 FILLER_11_69
*428 FILLER_11_75
*429 FILLER_11_87
*430 FILLER_11_99
*431 FILLER_12_101
*432 FILLER_12_113
*433 FILLER_12_125
*434 FILLER_12_137
*435 FILLER_12_141
*436 FILLER_12_153
*437 FILLER_12_161
*438 FILLER_12_164
*439 FILLER_12_170
*440 FILLER_12_176
*441 FILLER_12_184
*442 FILLER_12_188
*443 FILLER_12_21
*444 FILLER_12_27
*445 FILLER_12_29
*446 FILLER_12_3
*447 FILLER_12_37
*448 FILLER_12_44
*449 FILLER_12_51
*450 FILLER_12_58
*451 FILLER_12_65
*452 FILLER_12_72
*453 FILLER_12_79
*454 FILLER_12_83
*455 FILLER_12_85
*456 FILLER_12_89
*457 FILLER_13_108
*458 FILLER_13_113
*459 FILLER_13_125
*460 FILLER_13_137
*461 FILLER_13_149
*462 FILLER_13_157
*463 FILLER_13_160
*464 FILLER_13_166
*465 FILLER_13_169
*466 FILLER_13_174
*467 FILLER_13_181
*468 FILLER_13_188
*469 FILLER_13_21
*470 FILLER_13_3
*471 FILLER_13_32
*472 FILLER_13_42
*473 FILLER_13_51
*474 FILLER_13_55
*475 FILLER_13_57
*476 FILLER_13_62
*477 FILLER_13_69
*478 FILLER_13_76
*479 FILLER_13_83
*480 FILLER_13_90
*481 FILLER_13_96
*482 FILLER_14_108
*483 FILLER_14_120
*484 FILLER_14_132
*485 FILLER_14_141
*486 FILLER_14_153
*487 FILLER_14_159
*488 FILLER_14_166
*489 FILLER_14_173
*490 FILLER_14_180
*491 FILLER_14_184
*492 FILLER_14_188
*493 FILLER_14_21
*494 FILLER_14_27
*495 FILLER_14_29
*496 FILLER_14_3
*497 FILLER_14_39
*498 FILLER_14_48
*499 FILLER_14_57
*500 FILLER_14_64
*501 FILLER_14_71
*502 FILLER_14_78
*503 FILLER_14_85
*504 FILLER_14_90
*505 FILLER_14_96
*506 FILLER_15_105
*507 FILLER_15_111
*508 FILLER_15_113
*509 FILLER_15_125
*510 FILLER_15_137
*511 FILLER_15_149
*512 FILLER_15_152
*513 FILLER_15_159
*514 FILLER_15_166
*515 FILLER_15_169
*516 FILLER_15_174
*517 FILLER_15_181
*518 FILLER_15_188
*519 FILLER_15_26
*520 FILLER_15_3
*521 FILLER_15_46
*522 FILLER_15_53
*523 FILLER_15_57
*524 FILLER_15_64
*525 FILLER_15_71
*526 FILLER_15_78
*527 FILLER_15_85
*528 FILLER_15_92
*529 FILLER_15_99
*530 FILLER_16_104
*531 FILLER_16_111
*532 FILLER_16_117
*533 FILLER_16_129
*534 FILLER_16_135
*535 FILLER_16_138
*536 FILLER_16_141
*537 FILLER_16_146
*538 FILLER_16_153
*539 FILLER_16_160
*540 FILLER_16_167
*541 FILLER_16_174
*542 FILLER_16_181
*543 FILLER_16_188
*544 FILLER_16_21
*545 FILLER_16_27
*546 FILLER_16_29
*547 FILLER_16_3
*548 FILLER_16_38
*549 FILLER_16_48
*550 FILLER_16_56
*551 FILLER_16_63
*552 FILLER_16_70
*553 FILLER_16_77
*554 FILLER_16_83
*555 FILLER_16_85
*556 FILLER_16_90
*557 FILLER_16_97
*558 FILLER_17_102
*559 FILLER_17_109
*560 FILLER_17_113
*561 FILLER_17_118
*562 FILLER_17_126
*563 FILLER_17_131
*564 FILLER_17_138
*565 FILLER_17_145
*566 FILLER_17_152
*567 FILLER_17_159
*568 FILLER_17_166
*569 FILLER_17_169
*570 FILLER_17_175
*571 FILLER_17_179
*572 FILLER_17_188
*573 FILLER_17_21
*574 FILLER_17_3
*575 FILLER_17_32
*576 FILLER_17_42
*577 FILLER_17_51
*578 FILLER_17_55
*579 FILLER_17_57
*580 FILLER_17_61
*581 FILLER_17_68
*582 FILLER_17_72
*583 FILLER_17_76
*584 FILLER_17_84
*585 FILLER_17_88
*586 FILLER_17_95
*587 FILLER_18_105
*588 FILLER_18_112
*589 FILLER_18_119
*590 FILLER_18_127
*591 FILLER_18_131
*592 FILLER_18_138
*593 FILLER_18_141
*594 FILLER_18_145
*595 FILLER_18_149
*596 FILLER_18_156
*597 FILLER_18_163
*598 FILLER_18_170
*599 FILLER_18_178
*600 FILLER_18_187
*601 FILLER_18_21
*602 FILLER_18_27
*603 FILLER_18_29
*604 FILLER_18_3
*605 FILLER_18_36
*606 FILLER_18_45
*607 FILLER_18_54
*608 FILLER_18_61
*609 FILLER_18_68
*610 FILLER_18_75
*611 FILLER_18_82
*612 FILLER_18_85
*613 FILLER_18_91
*614 FILLER_18_98
*615 FILLER_19_103
*616 FILLER_19_110
*617 FILLER_19_113
*618 FILLER_19_117
*619 FILLER_19_12
*620 FILLER_19_124
*621 FILLER_19_131
*622 FILLER_19_138
*623 FILLER_19_145
*624 FILLER_19_152
*625 FILLER_19_159
*626 FILLER_19_166
*627 FILLER_19_169
*628 FILLER_19_178
*629 FILLER_19_188
*630 FILLER_19_22
*631 FILLER_19_3
*632 FILLER_19_31
*633 FILLER_19_40
*634 FILLER_19_46
*635 FILLER_19_54
*636 FILLER_19_57
*637 FILLER_19_75
*638 FILLER_19_83
*639 FILLER_19_89
*640 FILLER_19_96
*641 FILLER_1_105
*642 FILLER_1_111
*643 FILLER_1_113
*644 FILLER_1_125
*645 FILLER_1_137
*646 FILLER_1_149
*647 FILLER_1_161
*648 FILLER_1_167
*649 FILLER_1_169
*650 FILLER_1_181
*651 FILLER_1_188
*652 FILLER_1_20
*653 FILLER_1_3
*654 FILLER_1_32
*655 FILLER_1_44
*656 FILLER_1_57
*657 FILLER_1_69
*658 FILLER_1_8
*659 FILLER_1_81
*660 FILLER_1_93
*661 FILLER_20_113
*662 FILLER_20_12
*663 FILLER_20_120
*664 FILLER_20_131
*665 FILLER_20_138
*666 FILLER_20_141
*667 FILLER_20_150
*668 FILLER_20_159
*669 FILLER_20_168
*670 FILLER_20_178
*671 FILLER_20_188
*672 FILLER_20_22
*673 FILLER_20_29
*674 FILLER_20_3
*675 FILLER_20_36
*676 FILLER_20_45
*677 FILLER_20_54
*678 FILLER_20_63
*679 FILLER_20_69
*680 FILLER_20_73
*681 FILLER_20_82
*682 FILLER_20_85
*683 FILLER_20_91
*684 FILLER_21_105
*685 FILLER_21_111
*686 FILLER_21_113
*687 FILLER_21_122
*688 FILLER_21_130
*689 FILLER_21_134
*690 FILLER_21_141
*691 FILLER_21_148
*692 FILLER_21_157
*693 FILLER_21_166
*694 FILLER_21_169
*695 FILLER_21_177
*696 FILLER_21_188
*697 FILLER_21_21
*698 FILLER_21_3
*699 FILLER_21_31
*700 FILLER_21_40
*701 FILLER_21_44
*702 FILLER_21_52
*703 FILLER_21_57
*704 FILLER_21_75
*705 FILLER_21_79
*706 FILLER_21_96
*707 FILLER_22_119
*708 FILLER_22_126
*709 FILLER_22_133
*710 FILLER_22_139
*711 FILLER_22_141
*712 FILLER_22_146
*713 FILLER_22_155
*714 FILLER_22_165
*715 FILLER_22_176
*716 FILLER_22_188
*717 FILLER_22_21
*718 FILLER_22_27
*719 FILLER_22_29
*720 FILLER_22_3
*721 FILLER_22_38
*722 FILLER_22_47
*723 FILLER_22_56
*724 FILLER_22_60
*725 FILLER_22_64
*726 FILLER_22_73
*727 FILLER_22_82
*728 FILLER_22_85
*729 FILLER_22_95
*730 FILLER_23_102
*731 FILLER_23_110
*732 FILLER_23_113
*733 FILLER_23_120
*734 FILLER_23_127
*735 FILLER_23_136
*736 FILLER_23_145
*737 FILLER_23_155
*738 FILLER_23_166
*739 FILLER_23_169
*740 FILLER_23_188
*741 FILLER_23_21
*742 FILLER_23_3
*743 FILLER_23_33
*744 FILLER_23_44
*745 FILLER_23_53
*746 FILLER_23_57
*747 FILLER_23_61
*748 FILLER_23_67
*749 FILLER_23_76
*750 FILLER_23_87
*751 FILLER_23_93
*752 FILLER_24_103
*753 FILLER_24_113
*754 FILLER_24_122
*755 FILLER_24_131
*756 FILLER_24_138
*757 FILLER_24_141
*758 FILLER_24_146
*759 FILLER_24_157
*760 FILLER_24_168
*761 FILLER_24_188
*762 FILLER_24_26
*763 FILLER_24_29
*764 FILLER_24_3
*765 FILLER_24_47
*766 FILLER_24_57
*767 FILLER_24_71
*768 FILLER_24_82
*769 FILLER_24_85
*770 FILLER_25_110
*771 FILLER_25_113
*772 FILLER_25_121
*773 FILLER_25_131
*774 FILLER_25_146
*775 FILLER_25_166
*776 FILLER_25_169
*777 FILLER_25_188
*778 FILLER_25_21
*779 FILLER_25_3
*780 FILLER_25_32
*781 FILLER_25_43
*782 FILLER_25_53
*783 FILLER_25_57
*784 FILLER_25_68
*785 FILLER_25_79
*786 FILLER_25_99
*787 FILLER_26_103
*788 FILLER_26_123
*789 FILLER_26_133
*790 FILLER_26_139
*791 FILLER_26_141
*792 FILLER_26_163
*793 FILLER_26_188
*794 FILLER_26_21
*795 FILLER_26_27
*796 FILLER_26_29
*797 FILLER_26_3
*798 FILLER_26_38
*799 FILLER_26_48
*800 FILLER_26_54
*801 FILLER_26_62
*802 FILLER_26_82
*803 FILLER_26_85
*804 FILLER_27_108
*805 FILLER_27_113
*806 FILLER_27_131
*807 FILLER_27_138
*808 FILLER_27_141
*809 FILLER_27_146
*810 FILLER_27_166
*811 FILLER_27_169
*812 FILLER_27_188
*813 FILLER_27_21
*814 FILLER_27_27
*815 FILLER_27_29
*816 FILLER_27_3
*817 FILLER_27_37
*818 FILLER_27_43
*819 FILLER_27_54
*820 FILLER_27_57
*821 FILLER_27_62
*822 FILLER_27_82
*823 FILLER_27_85
*824 FILLER_2_109
*825 FILLER_2_121
*826 FILLER_2_133
*827 FILLER_2_139
*828 FILLER_2_141
*829 FILLER_2_153
*830 FILLER_2_165
*831 FILLER_2_177
*832 FILLER_2_188
*833 FILLER_2_20
*834 FILLER_2_29
*835 FILLER_2_3
*836 FILLER_2_41
*837 FILLER_2_53
*838 FILLER_2_65
*839 FILLER_2_77
*840 FILLER_2_8
*841 FILLER_2_83
*842 FILLER_2_85
*843 FILLER_2_97
*844 FILLER_3_105
*845 FILLER_3_111
*846 FILLER_3_113
*847 FILLER_3_125
*848 FILLER_3_137
*849 FILLER_3_149
*850 FILLER_3_161
*851 FILLER_3_167
*852 FILLER_3_169
*853 FILLER_3_181
*854 FILLER_3_188
*855 FILLER_3_20
*856 FILLER_3_3
*857 FILLER_3_32
*858 FILLER_3_44
*859 FILLER_3_57
*860 FILLER_3_69
*861 FILLER_3_8
*862 FILLER_3_81
*863 FILLER_3_93
*864 FILLER_4_109
*865 FILLER_4_121
*866 FILLER_4_133
*867 FILLER_4_139
*868 FILLER_4_141
*869 FILLER_4_153
*870 FILLER_4_165
*871 FILLER_4_177
*872 FILLER_4_188
*873 FILLER_4_21
*874 FILLER_4_27
*875 FILLER_4_29
*876 FILLER_4_3
*877 FILLER_4_41
*878 FILLER_4_53
*879 FILLER_4_65
*880 FILLER_4_77
*881 FILLER_4_83
*882 FILLER_4_85
*883 FILLER_4_9
*884 FILLER_4_97
*885 FILLER_5_105
*886 FILLER_5_111
*887 FILLER_5_113
*888 FILLER_5_125
*889 FILLER_5_137
*890 FILLER_5_149
*891 FILLER_5_15
*892 FILLER_5_161
*893 FILLER_5_167
*894 FILLER_5_169
*895 FILLER_5_181
*896 FILLER_5_188
*897 FILLER_5_22
*898 FILLER_5_3
*899 FILLER_5_34
*900 FILLER_5_46
*901 FILLER_5_54
*902 FILLER_5_57
*903 FILLER_5_69
*904 FILLER_5_8
*905 FILLER_5_81
*906 FILLER_5_93
*907 FILLER_6_109
*908 FILLER_6_121
*909 FILLER_6_133
*910 FILLER_6_139
*911 FILLER_6_141
*912 FILLER_6_15
*913 FILLER_6_153
*914 FILLER_6_165
*915 FILLER_6_177
*916 FILLER_6_188
*917 FILLER_6_22
*918 FILLER_6_29
*919 FILLER_6_3
*920 FILLER_6_34
*921 FILLER_6_40
*922 FILLER_6_52
*923 FILLER_6_64
*924 FILLER_6_76
*925 FILLER_6_8
*926 FILLER_6_85
*927 FILLER_6_97
*928 FILLER_7_105
*929 FILLER_7_111
*930 FILLER_7_113
*931 FILLER_7_125
*932 FILLER_7_137
*933 FILLER_7_149
*934 FILLER_7_15
*935 FILLER_7_161
*936 FILLER_7_167
*937 FILLER_7_169
*938 FILLER_7_181
*939 FILLER_7_188
*940 FILLER_7_22
*941 FILLER_7_29
*942 FILLER_7_3
*943 FILLER_7_36
*944 FILLER_7_42
*945 FILLER_7_48
*946 FILLER_7_57
*947 FILLER_7_69
*948 FILLER_7_8
*949 FILLER_7_81
*950 FILLER_7_93
*951 FILLER_8_109
*952 FILLER_8_121
*953 FILLER_8_133
*954 FILLER_8_139
*955 FILLER_8_141
*956 FILLER_8_15
*957 FILLER_8_153
*958 FILLER_8_165
*959 FILLER_8_177
*960 FILLER_8_188
*961 FILLER_8_22
*962 FILLER_8_29
*963 FILLER_8_3
*964 FILLER_8_34
*965 FILLER_8_41
*966 FILLER_8_49
*967 FILLER_8_55
*968 FILLER_8_67
*969 FILLER_8_79
*970 FILLER_8_8
*971 FILLER_8_83
*972 FILLER_8_85
*973 FILLER_8_97
*974 FILLER_9_10
*975 FILLER_9_103
*976 FILLER_9_111
*977 FILLER_9_113
*978 FILLER_9_125
*979 FILLER_9_137
*980 FILLER_9_149
*981 FILLER_9_161
*982 FILLER_9_167
*983 FILLER_9_169
*984 FILLER_9_17
*985 FILLER_9_181
*986 FILLER_9_188
*987 FILLER_9_24
*988 FILLER_9_3
*989 FILLER_9_31
*990 FILLER_9_38
*991 FILLER_9_45
*992 FILLER_9_52
*993 FILLER_9_57
*994 FILLER_9_61
*995 FILLER_9_67
*996 FILLER_9_79
*997 FILLER_9_91
*998 PHY_0
*999 PHY_1
*1000 PHY_10
*1001 PHY_11
*1002 PHY_12
*1003 PHY_13
*1004 PHY_14
*1005 PHY_15
*1006 PHY_16
*1007 PHY_17
*1008 PHY_18
*1009 PHY_19
*1010 PHY_2
*1011 PHY_20
*1012 PHY_21
*1013 PHY_22
*1014 PHY_23
*1015 PHY_24
*1016 PHY_25
*1017 PHY_26
*1018 PHY_27
*1019 PHY_28
*1020 PHY_29
*1021 PHY_3
*1022 PHY_30
*1023 PHY_31
*1024 PHY_32
*1025 PHY_33
*1026 PHY_34
*1027 PHY_35
*1028 PHY_36
*1029 PHY_37
*1030 PHY_38
*1031 PHY_39
*1032 PHY_4
*1033 PHY_40
*1034 PHY_41
*1035 PHY_42
*1036 PHY_43
*1037 PHY_44
*1038 PHY_45
*1039 PHY_46
*1040 PHY_47
*1041 PHY_48
*1042 PHY_49
*1043 PHY_5
*1044 PHY_50
*1045 PHY_51
*1046 PHY_52
*1047 PHY_53
*1048 PHY_54
*1049 PHY_55
*1050 PHY_6
*1051 PHY_7
*1052 PHY_8
*1053 PHY_9
*1054 TAP_100
*1055 TAP_101
*1056 TAP_102
*1057 TAP_103
*1058 TAP_104
*1059 TAP_105
*1060 TAP_106
*1061 TAP_107
*1062 TAP_108
*1063 TAP_109
*1064 TAP_110
*1065 TAP_111
*1066 TAP_112
*1067 TAP_113
*1068 TAP_114
*1069 TAP_115
*1070 TAP_116
*1071 TAP_117
*1072 TAP_118
*1073 TAP_119
*1074 TAP_120
*1075 TAP_121
*1076 TAP_122
*1077 TAP_123
*1078 TAP_124
*1079 TAP_125
*1080 TAP_126
*1081 TAP_127
*1082 TAP_128
*1083 TAP_129
*1084 TAP_130
*1085 TAP_131
*1086 TAP_132
*1087 TAP_133
*1088 TAP_134
*1089 TAP_135
*1090 TAP_136
*1091 TAP_137
*1092 TAP_138
*1093 TAP_139
*1094 TAP_140
*1095 TAP_141
*1096 TAP_142
*1097 TAP_143
*1098 TAP_144
*1099 TAP_145
*1100 TAP_56
*1101 TAP_57
*1102 TAP_58
*1103 TAP_59
*1104 TAP_60
*1105 TAP_61
*1106 TAP_62
*1107 TAP_63
*1108 TAP_64
*1109 TAP_65
*1110 TAP_66
*1111 TAP_67
*1112 TAP_68
*1113 TAP_69
*1114 TAP_70
*1115 TAP_71
*1116 TAP_72
*1117 TAP_73
*1118 TAP_74
*1119 TAP_75
*1120 TAP_76
*1121 TAP_77
*1122 TAP_78
*1123 TAP_79
*1124 TAP_80
*1125 TAP_81
*1126 TAP_82
*1127 TAP_83
*1128 TAP_84
*1129 TAP_85
*1130 TAP_86
*1131 TAP_87
*1132 TAP_88
*1133 TAP_89
*1134 TAP_90
*1135 TAP_91
*1136 TAP_92
*1137 TAP_93
*1138 TAP_94
*1139 TAP_95
*1140 TAP_96
*1141 TAP_97
*1142 TAP_98
*1143 TAP_99
*1144 _153_
*1145 _154_
*1146 _155_
*1147 _156_
*1148 _157_
*1149 _158_
*1150 _159_
*1151 _160_
*1152 _161_
*1153 _162_
*1154 _163_
*1155 _164_
*1156 _165_
*1157 _166_
*1158 _167_
*1159 _168_
*1160 _169_
*1161 _170_
*1162 _171_
*1163 _172_
*1164 _173_
*1165 _174_
*1166 _175_
*1167 _176_
*1168 _177_
*1169 _178_
*1170 _179_
*1171 _180_
*1172 _181_
*1173 _182_
*1174 _183_
*1175 _184_
*1176 _185_
*1177 _186_
*1178 _187_
*1179 _188_
*1180 _189_
*1181 _190_
*1182 _191_
*1183 _192_
*1184 _193_
*1185 _194_
*1186 _195_
*1187 _196_
*1188 _197_
*1189 _198_
*1190 _199_
*1191 _200_
*1192 _201_
*1193 _202_
*1194 _203_
*1195 _204_
*1196 _205_
*1197 _206_
*1198 _207_
*1199 _208_
*1200 _209_
*1201 _210_
*1202 _211_
*1203 _212_
*1204 _213_
*1205 _214_
*1206 _215_
*1207 _216_
*1208 _217_
*1209 _218_
*1210 _219_
*1211 _220_
*1212 _221_
*1213 _222_
*1214 _223_
*1215 _224_
*1216 _225_
*1217 _226_
*1218 _227_
*1219 _228_
*1220 _229_
*1221 _230_
*1222 _231_
*1223 _232_
*1224 _233_
*1225 _234_
*1226 _235_
*1227 _236_
*1228 _237_
*1229 _238_
*1230 _239_
*1231 _240_
*1232 _241_
*1233 _242_
*1234 _243_
*1235 _244_
*1236 _245_
*1237 _246_
*1238 _247_
*1239 _248_
*1240 _249_
*1241 _250_
*1242 _251_
*1243 _252_
*1244 _253_
*1245 _254_
*1246 _255_
*1247 _256_
*1248 _257_
*1249 _258_
*1250 _259_
*1251 _260_
*1252 _261_
*1253 _262_
*1254 _263_
*1255 _264_
*1256 _265_
*1257 _266_
*1258 _267_
*1259 _268_
*1260 _269_
*1261 _270_
*1262 _271_
*1263 _272_
*1264 _273_
*1265 _274_
*1266 _275_
*1267 _276_
*1268 _277_
*1269 _278_
*1270 _279_
*1271 _280_
*1272 _281_
*1273 _282_
*1274 _283_
*1275 _284_
*1276 _285_
*1277 _286_
*1278 _287_
*1279 _288_
*1280 _289_
*1281 _290_
*1282 _291_
*1283 _292_
*1284 _293_
*1285 _294_
*1286 _295_
*1287 _296_
*1288 _297_
*1289 _298_
*1290 _299_
*1291 _300_
*1292 _301_
*1293 _302_
*1294 _303_
*1295 _304_
*1296 _305_
*1297 _306_
*1298 _307_
*1299 _308_
*1300 _309_
*1301 _310_
*1302 _311_
*1303 _312_
*1304 _313_
*1305 _314_
*1306 _315_
*1307 _316_
*1308 _317_
*1309 _318_
*1310 _319_
*1311 _320_
*1312 _321_
*1313 _322_
*1314 _323_
*1315 _324_
*1316 _325_
*1317 _326_
*1318 _327_
*1319 _328_
*1320 _329_
*1321 _330_
*1322 _331_
*1323 _332_
*1324 _333_
*1325 _334_
*1326 _335_
*1327 _336_
*1328 _337_
*1329 _338_
*1330 _414_
*1331 fanout29
*1332 fanout30
*1333 fanout31
*1334 fanout32
*1335 input1
*1336 input10
*1337 input11
*1338 input12
*1339 input13
*1340 input14
*1341 input15
*1342 input16
*1343 input17
*1344 input18
*1345 input19
*1346 input2
*1347 input20
*1348 input21
*1349 input22
*1350 input23
*1351 input24
*1352 input25
*1353 input26
*1354 input27
*1355 input3
*1356 input4
*1357 input5
*1358 input6
*1359 input7
*1360 input8
*1361 input9
*1362 output28
*1363 tiny_user_project_100
*1364 tiny_user_project_101
*1365 tiny_user_project_102
*1366 tiny_user_project_103
*1367 tiny_user_project_104
*1368 tiny_user_project_105
*1369 tiny_user_project_106
*1370 tiny_user_project_107
*1371 tiny_user_project_33
*1372 tiny_user_project_34
*1373 tiny_user_project_35
*1374 tiny_user_project_36
*1375 tiny_user_project_37
*1376 tiny_user_project_38
*1377 tiny_user_project_39
*1378 tiny_user_project_40
*1379 tiny_user_project_41
*1380 tiny_user_project_42
*1381 tiny_user_project_43
*1382 tiny_user_project_44
*1383 tiny_user_project_45
*1384 tiny_user_project_46
*1385 tiny_user_project_47
*1386 tiny_user_project_48
*1387 tiny_user_project_49
*1388 tiny_user_project_50
*1389 tiny_user_project_51
*1390 tiny_user_project_52
*1391 tiny_user_project_53
*1392 tiny_user_project_54
*1393 tiny_user_project_55
*1394 tiny_user_project_56
*1395 tiny_user_project_57
*1396 tiny_user_project_58
*1397 tiny_user_project_59
*1398 tiny_user_project_60
*1399 tiny_user_project_61
*1400 tiny_user_project_62
*1401 tiny_user_project_63
*1402 tiny_user_project_64
*1403 tiny_user_project_65
*1404 tiny_user_project_66
*1405 tiny_user_project_67
*1406 tiny_user_project_68
*1407 tiny_user_project_69
*1408 tiny_user_project_70
*1409 tiny_user_project_71
*1410 tiny_user_project_72
*1411 tiny_user_project_73
*1412 tiny_user_project_74
*1413 tiny_user_project_75
*1414 tiny_user_project_76
*1415 tiny_user_project_77
*1416 tiny_user_project_78
*1417 tiny_user_project_79
*1418 tiny_user_project_80
*1419 tiny_user_project_81
*1420 tiny_user_project_82
*1421 tiny_user_project_83
*1422 tiny_user_project_84
*1423 tiny_user_project_85
*1424 tiny_user_project_86
*1425 tiny_user_project_87
*1426 tiny_user_project_88
*1427 tiny_user_project_89
*1428 tiny_user_project_90
*1429 tiny_user_project_91
*1430 tiny_user_project_92
*1431 tiny_user_project_93
*1432 tiny_user_project_94
*1433 tiny_user_project_95
*1434 tiny_user_project_96
*1435 tiny_user_project_97
*1436 tiny_user_project_98
*1437 tiny_user_project_99

*PORTS
io_in[0] I
io_in[10] I
io_in[11] I
io_in[12] I
io_in[13] I
io_in[14] I
io_in[15] I
io_in[16] I
io_in[17] I
io_in[18] I
io_in[19] I
io_in[1] I
io_in[20] I
io_in[21] I
io_in[22] I
io_in[23] I
io_in[24] I
io_in[25] I
io_in[26] I
io_in[27] I
io_in[28] I
io_in[29] I
io_in[2] I
io_in[30] I
io_in[31] I
io_in[32] I
io_in[33] I
io_in[34] I
io_in[35] I
io_in[36] I
io_in[37] I
io_in[3] I
io_in[4] I
io_in[5] I
io_in[6] I
io_in[7] I
io_in[8] I
io_in[9] I
io_oeb[0] O
io_oeb[10] O
io_oeb[11] O
io_oeb[12] O
io_oeb[13] O
io_oeb[14] O
io_oeb[15] O
io_oeb[16] O
io_oeb[17] O
io_oeb[18] O
io_oeb[19] O
io_oeb[1] O
io_oeb[20] O
io_oeb[21] O
io_oeb[22] O
io_oeb[23] O
io_oeb[24] O
io_oeb[25] O
io_oeb[26] O
io_oeb[27] O
io_oeb[28] O
io_oeb[29] O
io_oeb[2] O
io_oeb[30] O
io_oeb[31] O
io_oeb[32] O
io_oeb[33] O
io_oeb[34] O
io_oeb[35] O
io_oeb[36] O
io_oeb[37] O
io_oeb[3] O
io_oeb[4] O
io_oeb[5] O
io_oeb[6] O
io_oeb[7] O
io_oeb[8] O
io_oeb[9] O
io_out[0] O
io_out[10] O
io_out[11] O
io_out[12] O
io_out[13] O
io_out[14] O
io_out[15] O
io_out[16] O
io_out[17] O
io_out[18] O
io_out[19] O
io_out[1] O
io_out[20] O
io_out[21] O
io_out[22] O
io_out[23] O
io_out[24] O
io_out[25] O
io_out[26] O
io_out[27] O
io_out[28] O
io_out[29] O
io_out[2] O
io_out[30] O
io_out[31] O
io_out[32] O
io_out[33] O
io_out[34] O
io_out[35] O
io_out[36] O
io_out[37] O
io_out[3] O
io_out[4] O
io_out[5] O
io_out[6] O
io_out[7] O
io_out[8] O
io_out[9] O

*D_NET *2 0.00720364
*CONN
*P io_in[10] I
*I *345:DIODE I *D sky130_fd_sc_hd__diode_2
*I *1335:A I *D sky130_fd_sc_hd__clkbuf_1
*CAP
1 io_in[10] 0.00113625
2 *345:DIODE 0.000896157
3 *1335:A 0
4 *2:10 0.00203241
5 *345:DIODE *1250:C 0.000424029
6 *345:DIODE *1253:A 3.10885e-05
7 *345:DIODE *1257:A 0.000172965
8 *345:DIODE *1259:A 0.000314458
9 *345:DIODE *1264:A 7.95355e-05
10 *345:DIODE *42:17 0
11 *345:DIODE *84:13 5.33005e-05
12 *345:DIODE *264:15 8.9558e-05
13 *345:DIODE *265:8 3.39021e-05
14 *2:10 io_oeb[9] 0.000325864
15 *2:10 io_out[10] 0.00101116
16 *2:10 io_out[9] 5.59381e-05
17 *2:10 *4:25 2.83129e-05
18 *2:10 *44:19 0.000202012
19 *2:10 *147:13 8.1389e-05
20 *2:10 *255:19 2.19185e-05
21 *2:10 *256:27 3.97161e-05
22 *2:10 *267:19 1.67779e-05
23 *2:10 *325:8 0.000156901
*RES
1 io_in[10] *2:10 12.9504 
2 *2:10 *1335:A 9.3 
3 *2:10 *345:DIODE 36.0679 
*END

*D_NET *3 0.00613441
*CONN
*P io_in[11] I
*I *354:DIODE I *D sky130_fd_sc_hd__diode_2
*I *1346:A I *D sky130_fd_sc_hd__clkbuf_1
*CAP
1 io_in[11] 0.00111519
2 *354:DIODE 0.000457682
3 *1346:A 7.7827e-05
4 *3:13 0.0016507
5 *354:DIODE *359:DIODE 0
6 *354:DIODE *1251:A 5.8569e-05
7 *354:DIODE *1256:A 6.76272e-05
8 *354:DIODE *1325:D 0.000148189
9 *354:DIODE *8:13 0
10 *354:DIODE *43:19 0
11 *1346:A *1256:A 7.48091e-05
12 *1346:A *1261:A_N 2.89016e-05
13 *3:13 io_oeb[10] 0.000128719
14 *3:13 io_out[11] 0.000264555
15 *3:13 *1233:A 0
16 *3:13 *1248:A 0.000141361
17 *3:13 *1250:B 9.53914e-05
18 *3:13 *1256:A 6.42095e-05
19 *3:13 *1261:A_N 6.05161e-06
20 *3:13 *1334:A 5.62995e-05
21 *3:13 *8:13 0.00109484
22 *3:13 *142:14 0.000561792
23 *3:13 *147:13 0
24 *3:13 *322:8 4.16984e-05
*RES
1 io_in[11] *3:13 26.8292 
2 *3:13 *1346:A 11.0857 
3 *3:13 *354:DIODE 27.5321 
*END

*D_NET *4 0.00983982
*CONN
*P io_in[12] I
*I *355:DIODE I *D sky130_fd_sc_hd__diode_2
*I *1355:A I *D sky130_fd_sc_hd__clkbuf_1
*CAP
1 io_in[12] 0.00224377
2 *355:DIODE 6.4449e-05
3 *1355:A 0.000341677
4 *4:25 0.0026499
5 *355:DIODE *325:8 5.52302e-05
6 *1355:A *325:8 0.000321479
7 *4:25 io_oeb[11] 0.000529038
8 *4:25 io_oeb[12] 0
9 *4:25 io_out[12] 0.000114694
10 *4:25 *1233:B 0.000168939
11 *4:25 *1238:A_N 1.48555e-05
12 *4:25 *1249:B 2.43869e-05
13 *4:25 *1254:S1 0.000141623
14 *4:25 *1258:A1 0.00069172
15 *4:25 *1262:A_N 0.00019034
16 *4:25 *46:16 9.02023e-05
17 *4:25 *250:24 1.53146e-05
18 *4:25 *256:27 4.57872e-05
19 *4:25 *267:19 0.000255057
20 *4:25 *271:34 0.000274031
21 *4:25 *273:18 0.000531494
22 *4:25 *274:34 0
23 *4:25 *325:8 0.000662116
24 *4:25 *328:30 0.000101231
25 *4:25 *330:12 0.000284166
26 *2:10 *4:25 2.83129e-05
*RES
1 io_in[12] *4:25 41.3442 
2 *4:25 *1355:A 17.0321 
3 *4:25 *355:DIODE 10.2464 
*END

*D_NET *5 0.010843
*CONN
*P io_in[13] I
*I *356:DIODE I *D sky130_fd_sc_hd__diode_2
*I *1356:A I *D sky130_fd_sc_hd__clkbuf_1
*CAP
1 io_in[13] 0.00198089
2 *356:DIODE 0
3 *1356:A 0.000182151
4 *5:33 0.000863262
5 *5:29 0.002662
6 *1356:A *129:14 6.05161e-06
7 *5:29 io_oeb[12] 0.000667642
8 *5:29 io_oeb[14] 5.6912e-05
9 *5:29 io_out[13] 0.00115374
10 *5:29 *1220:B 9.07239e-05
11 *5:29 *1268:A2 0.000146293
12 *5:29 *1276:B 5.52238e-05
13 *5:29 *46:16 0.000115707
14 *5:29 *48:14 0.00104572
15 *5:29 *281:27 1.00073e-05
16 *5:33 io_out[18] 0
17 *5:33 *1208:A 1.17968e-05
18 *5:33 *1277:B2 0.000330485
19 *5:33 *1279:A1 0.00072573
20 *5:33 *1298:D 0.000102545
21 *5:33 *1320:D 0.000196619
22 *5:33 *48:14 8.32171e-05
23 *5:33 *97:17 7.80167e-05
24 *5:33 *129:14 2.47724e-05
25 *5:33 *168:84 0
26 *5:33 *242:21 0.000123358
27 *5:33 *277:53 8.2395e-05
28 *5:33 *333:11 4.77292e-05
*RES
1 io_in[13] *5:29 37.8818 
2 *5:29 *5:33 22.5714 
3 *5:33 *1356:A 12.2107 
4 *5:33 *356:DIODE 9.3 
*END

*D_NET *6 0.00909864
*CONN
*P io_in[14] I
*I *357:DIODE I *D sky130_fd_sc_hd__diode_2
*I *1357:A I *D sky130_fd_sc_hd__clkbuf_1
*CAP
1 io_in[14] 0.00150886
2 *357:DIODE 0.000492062
3 *1357:A 9.43291e-05
4 *6:11 0.000831735
5 *6:10 0.00175421
6 *357:DIODE io_oeb[6] 0
7 *357:DIODE io_out[7] 0
8 *357:DIODE *353:DIODE 0.000777543
9 *1357:A *352:DIODE 1.33343e-05
10 *1357:A *7:20 8.36404e-05
11 *6:10 io_oeb[13] 6.17498e-05
12 *6:10 io_oeb[7] 0
13 *6:10 io_out[12] 0
14 *6:10 io_out[14] 6.17498e-05
15 *6:10 io_out[15] 8.93627e-05
16 *6:10 io_out[7] 0
17 *6:10 *1263:B2 0
18 *6:10 *1268:C1 0
19 *6:10 *7:13 0.00301233
20 *6:10 *80:14 3.04608e-05
21 *6:11 *7:20 0.000287272
*RES
1 io_in[14] *6:10 46.4089 
2 *6:10 *6:11 5.05357 
3 *6:11 *1357:A 11.0857 
4 *6:11 *357:DIODE 29.4964 
*END

*D_NET *7 0.00999334
*CONN
*P io_in[15] I
*I *1358:A I *D sky130_fd_sc_hd__clkbuf_1
*I *358:DIODE I *D sky130_fd_sc_hd__diode_2
*CAP
1 io_in[15] 0.00139276
2 *1358:A 0
3 *358:DIODE 0.000147221
4 *7:20 0.000543969
5 *7:13 0.00178951
6 *358:DIODE *352:DIODE 0.000198287
7 *358:DIODE *330:12 0.000624177
8 *7:13 io_oeb[15] 0.00126382
9 *7:13 io_out[15] 0.000266989
10 *7:13 io_out[7] 0
11 *7:20 *352:DIODE 0.000156816
12 *7:20 *330:12 0.000226545
13 *1357:A *7:20 8.36404e-05
14 *6:10 *7:13 0.00301233
15 *6:11 *7:20 0.000287272
*RES
1 io_in[15] *7:13 46.9821 
2 *7:13 *7:20 14.625 
3 *7:20 *358:DIODE 15.175 
4 *7:20 *1358:A 9.3 
*END

*D_NET *8 0.00779417
*CONN
*P io_in[16] I
*I *1359:A I *D sky130_fd_sc_hd__clkbuf_1